@<TRIPOS>MOLECULE
*****
 460 0 0 0 0
SMALL
GASTEIGER

@<TRIPOS>ATOM
      1     C	-1.0248264307  1.7726620331 -0.0233650685	  C3      1    UNL1	 -0.201750
      2     C	 0.6541735696 -1.2013695371  1.6886349314	  C3      1    UNL1	 -0.211548
      3     C	 1.7650876965 -1.2013695371  1.3276770508	  C3      1    UNL1	 -0.198603
      4     C	 0.0987165062 -2.1634493924  1.3276770508	  C3      1    UNL1	 -0.200879
      5     C	 1.2096306331 -2.1634493924  1.3276770508	  C3      1    UNL1	 -0.189192
      6     C	 2.4516703854 -1.2013695371  0.3826770508	  C3      1    UNL1	 -0.192307
      7     C	-0.8000319017 -2.2579116565  0.3826770508	  C3      1    UNL1	 -0.201544
      8     C	 0.0987165062 -2.9108905968  0.3826770508	  C3      1    UNL1	 -0.185110
      9     C	 1.2096306331 -2.9108905968  0.3826770508	  C3      1    UNL1	 -0.177633
     10     C	 2.1083790409 -2.2579116565  0.3826770508	  C3      1    UNL1	 -0.179897
     11     C	 2.4516703854 -1.2013695371 -0.7854071880	  C3      1    UNL1	 -0.187824
     12     C	 2.1083790409 -0.1448274178 -0.7854071880	  C3      1    UNL1	 -0.205938
     13     C	-0.8000319017 -2.2579116565 -0.7854071880	  C3      1    UNL1	 -0.195720
     14     C	 0.0987165062 -2.9108905968 -0.7854071880	  C3      1    UNL1	 -0.182302
     15     C	 1.2096306331 -2.9108905968 -0.7854071880	  C3      1    UNL1	 -0.175302
     16     C	 2.1083790409 -2.2579116565 -0.7854071880	  C3      1    UNL1	 -0.177366
     17     C	 1.7650876965 -1.2013695371 -1.7304071880	  C3      1    UNL1	 -0.189137
     18     C	 1.2096306331 -0.2392896819 -1.7304071880	  C3      1    UNL1	 -0.202966
     19     C	 0.0987165062 -2.1634493924 -1.7304071880	  C3      1    UNL1	 -0.191678
     20     C	 1.2096306331 -2.1634493924 -1.7304071880	  C3      1    UNL1	 -0.182856
     21     C	 0.6541735696 -1.2013695371 -2.0913650686	  C3      1    UNL1	 -0.201460
     22     C	 0.9111735698  1.0296304639  2.3126349317	  C3      1    UNL1	 -0.196975
     23     C	 2.0220876966  1.0296304639  1.9516770511	  C3      1    UNL1	 -0.185771
     24     C	 1.4666306332  1.9917103192  1.9516770511	  C3      1    UNL1	 -0.181256
     25     C	 0.3557165063  1.9917103192  1.9516770511	  C3      1    UNL1	 -0.192492
     26     C	 1.4666306332  0.0675506087  1.9516770511	  C3      1    UNL1	 -0.201685
     27     C	 2.7086703856  1.0296304639  1.0066770511	  C3      1    UNL1	 -0.183693
     28     C	 2.3653790411  2.0861725833  1.0066770511	  C3      1    UNL1	 -0.175926
     29     C	 1.4666306332  2.7391515236  1.0066770511	  C3      1    UNL1	 -0.177134
     30     C	 0.3557165063  2.7391515236  1.0066770511	  C3      1    UNL1	 -0.185934
     31     C	-0.5430319016  2.0861725833  1.0066770511	  C3      1    UNL1	 -0.200509
     32     C	 2.3653790411 -0.0269116554  1.0066770511	  C3      1    UNL1	 -0.200364
     33     C	 2.7086703856  1.0296304639 -0.1614071877	  C3      1    UNL1	 -0.187733
     34     C	 2.3653790411  2.0861725833 -0.1614071877	  C3      1    UNL1	 -0.180249
     35     C	 1.4666306332  2.7391515236 -0.1614071877	  C3      1    UNL1	 -0.181564
     36     C	 0.3557165063  2.7391515236 -0.1614071877	  C3      1    UNL1	 -0.190333
     37     C	-0.5430319016  2.0861725833 -0.1614071877	  C3      1    UNL1	 -0.204025
     38     C	 2.3653790411 -0.0269116554 -0.1614071877	  C3      1    UNL1	 -0.207720
     39     C	 2.0220876966  1.0296304639 -1.1064071877	  C3      1    UNL1	 -0.194459
     40     C	 1.4666306332  1.9917103192 -1.1064071877	  C3      1    UNL1	 -0.191862
     41     C	 0.3557165063  1.9917103192 -1.1064071877	  C3      1    UNL1	 -0.208074
     42     C	-1.2822834944  2.0311515233 -0.6453229497	  C3      1    UNL1	 -0.193775
     43     C	-2.1810319023  1.3781725830 -0.6453229497	  C3      1    UNL1	 -0.190809
     44     C	-2.5243232468  0.3216304636 -0.6453229497	  C3      1    UNL1	 -0.194317
     45     C	-2.1810319023 -0.7349116558 -0.6453229497	  C3      1    UNL1	 -0.200034
     46     C	 1.0706703848  0.3216304636 -1.8134071884	  C3      1    UNL1	 -0.200102
     47     C	 0.7273790403  1.3781725830 -1.8134071884	  C3      1    UNL1	 -0.199413
     48     C	-0.1713693676  2.0311515233 -1.8134071884	  C3      1    UNL1	 -0.190925
     49     C	-1.2822834944  2.0311515233 -1.8134071884	  C3      1    UNL1	 -0.181869
     50     C	-2.1810319023  1.3781725830 -1.8134071884	  C3      1    UNL1	 -0.177748
     51     C	-2.5243232468  0.3216304636 -1.8134071884	  C3      1    UNL1	 -0.178777
     52     C	-2.1810319023 -0.7349116558 -1.8134071884	  C3      1    UNL1	 -0.184126
     53     C	-1.2822834944 -1.3878905961 -1.8134071884	  C3      1    UNL1	 -0.194757
     54     C	 0.3840876958  0.3216304636 -2.7584071884	  C3      1    UNL1	 -0.187223
     55     C	-0.1713693676  1.2837103189 -2.7584071884	  C3      1    UNL1	 -0.180992
     56     C	-1.2822834944  1.2837103189 -2.7584071884	  C3      1    UNL1	 -0.173763
     57     C	-1.8377405579  0.3216304636 -2.7584071884	  C3      1    UNL1	 -0.172871
     58     C	-1.2822834944 -0.6404493917 -2.7584071884	  C3      1    UNL1	 -0.180242
     59     C	-0.1713693676 -0.6404493917 -2.7584071884	  C3      1    UNL1	 -0.189157
     60     C	-0.7268264310  0.3216304636 -3.1193650691	  C3      1    UNL1	 -0.176511
     61     C	-0.8328264311 -0.1583695366  2.9116349320	  C3      1    UNL1	 -0.179413
     62     C	 0.2780876958 -0.1583695366  2.5506770514	  C3      1    UNL1	 -0.195845
     63     C	-0.2773693677  0.8037103186  2.5506770514	  C3      1    UNL1	 -0.194697
     64     C	-1.3882834945  0.8037103186  2.5506770514	  C3      1    UNL1	 -0.180178
     65     C	-1.9437405579 -0.1583695366  2.5506770514	  C3      1    UNL1	 -0.172541
     66     C	-1.3882834945 -1.1204493919  2.5506770514	  C3      1    UNL1	 -0.176090
     67     C	-0.2773693677 -1.1204493919  2.5506770514	  C3      1    UNL1	 -0.186937
     68     C	-1.3882834945  1.5511515231  1.6056770514	  C3      1    UNL1	 -0.191009
     69     C	-2.2870319024  0.8981725827  1.6056770514	  C3      1    UNL1	 -0.180902
     70     C	-2.6303232469 -0.1583695366  1.6056770514	  C3      1    UNL1	 -0.176440
     71     C	-2.2870319024 -1.2149116560  1.6056770514	  C3      1    UNL1	 -0.177698
     72     C	-1.3882834945 -1.8678905963  1.6056770514	  C3      1    UNL1	 -0.186108
     73     C	-0.2773693677 -1.8678905963  1.6056770514	  C3      1    UNL1	 -0.202742
     74     C	-1.3882834945  1.5511515231  0.4375928126	  C3      1    UNL1	 -0.200447
     75     C	-2.2870319024  0.8981725827  0.4375928126	  C3      1    UNL1	 -0.195196
     76     C	-2.6303232469 -0.1583695366  0.4375928126	  C3      1    UNL1	 -0.190438
     77     C	-2.2870319024 -1.2149116560  0.4375928126	  C3      1    UNL1	 -0.189953
     78     C	-1.3882834945 -1.8678905963  0.4375928126	  C3      1    UNL1	 -0.199816
     79     C	-1.7028325593 -1.4852420864 -0.5396136353	  C3      1    UNL1	 -0.194139
     80     C	 1.7341735696 -1.2013695371  1.6692498036	  C3      1    UNL1	 -0.184753
     81     C	 0.1141735696 -2.1366769732  1.6692498036	  C3      1    UNL1	 -0.187673
     82     C	 1.1941735696 -2.1366769732  1.6692498036	  C3      1    UNL1	 -0.175732
     83     C	 2.5247884418 -1.2013695371  0.8786349314	  C3      1    UNL1	 -0.178226
     84     C	-0.5708186585 -2.6150859305  0.8786349314	  C3      1    UNL1	 -0.181986
     85     C	 0.3879573166 -3.0529442471  0.8786349314	  C3      1    UNL1	 -0.168676
     86     C	 1.4312550711 -2.9029406758  0.8786349314	  C3      1    UNL1	 -0.164068
     87     C	 2.2278349394 -2.2127002908  0.8786349314	  C3      1    UNL1	 -0.166878
     88     C	 2.8141735696 -1.2013695371 -0.2013650686	  C3      1    UNL1	 -0.173234
     89     C	-0.9626096464 -2.6337144789 -0.2013650686	  C3      1    UNL1	 -0.178641
     90     C	-0.1117729864 -3.2210046213 -0.2013650686	  C3      1    UNL1	 -0.167017
     91     C	 0.9145327990 -3.3456207052 -0.2013650686	  C3      1    UNL1	 -0.160524
     92     C	 1.8811934226 -2.9790146874 -0.2013650686	  C3      1    UNL1	 -0.159148
     93     C	 2.5667585850 -2.2051715887 -0.2013650686	  C3      1    UNL1	 -0.163224
     94     C	 2.5247884418 -1.2013695371 -1.2813650686	  C3      1    UNL1	 -0.171023
     95     C	 2.2278349394 -0.1900387835 -1.2813650686	  C3      1    UNL1	 -0.185504
     96     C	-0.5708186585 -2.6150859305 -1.2813650686	  C3      1    UNL1	 -0.174924
     97     C	 0.3879573166 -3.0529442471 -1.2813650686	  C3      1    UNL1	 -0.164587
     98     C	 1.4312550711 -2.9029406758 -1.2813650686	  C3      1    UNL1	 -0.160552
     99     C	 2.2278349394 -2.2127002908 -1.2813650686	  C3      1    UNL1	 -0.162818
    100     C	 1.7341735696 -1.2013695371 -2.0719799408	  C3      1    UNL1	 -0.174151
    101     C	 1.1941735696 -0.2660621010 -2.0719799408	  C3      1    UNL1	 -0.192075
    102     C	 0.1141735696 -2.1366769732 -2.0719799408	  C3      1    UNL1	 -0.177025
    103     C	 1.1941735696 -2.1366769732 -2.0719799408	  C3      1    UNL1	 -0.168543
    104     C	 0.6541735696 -1.2013695371 -2.3613650686	  C3      1    UNL1	 -0.186438
    105     C	 0.9111735698  1.0296304639  2.5826349317	  C3      1    UNL1	 -0.180446
    106     C	 1.9911735698  1.0296304639  2.2932498039	  C3      1    UNL1	 -0.170157
    107     C	 1.4511735698  1.9649379000  2.2932498039	  C3      1    UNL1	 -0.166495
    108     C	 0.3711735698  1.9649379000  2.2932498039	  C3      1    UNL1	 -0.176459
    109     C	 1.4511735698  0.0943230278  2.2932498039	  C3      1    UNL1	 -0.185077
    110     C	 2.7817884419  1.0296304639  1.5026349317	  C3      1    UNL1	 -0.166884
    111     C	 2.4848349395  2.0409612176  1.5026349317	  C3      1    UNL1	 -0.160704
    112     C	 1.6882550712  2.7312016027  1.5026349317	  C3      1    UNL1	 -0.160713
    113     C	 0.6449573168  2.8812051739  1.5026349317	  C3      1    UNL1	 -0.166577
    114     C	-0.3138186584  2.4433468574  1.5026349317	  C3      1    UNL1	 -0.178599
    115     C	 2.4848349395  0.0182997103  1.5026349317	  C3      1    UNL1	 -0.179750
    116     C	 3.0711735698  1.0296304639  0.4226349317	  C3      1    UNL1	 -0.168382
    117     C	 2.8237585852  2.0334325155  0.4226349317	  C3      1    UNL1	 -0.161681
    118     C	 2.1381934227  2.8072756143  0.4226349317	  C3      1    UNL1	 -0.160294
    119     C	 1.1715327991  3.1738816320  0.4226349317	  C3      1    UNL1	 -0.163740
    120     C	 0.1452270137  3.0492655481  0.4226349317	  C3      1    UNL1	 -0.171434
    121     C	-0.7056096463  2.4619754057  0.4226349317	  C3      1    UNL1	 -0.183743
    122     C	 2.8237585852  0.0258284123  0.4226349317	  C3      1    UNL1	 -0.182661
    123     C	 2.7817884419  1.0296304639 -0.6573650683	  C3      1    UNL1	 -0.173214
    124     C	 2.4848349395  2.0409612176 -0.6573650683	  C3      1    UNL1	 -0.166735
    125     C	 1.6882550712  2.7312016027 -0.6573650683	  C3      1    UNL1	 -0.167146
    126     C	 0.6449573168  2.8812051739 -0.6573650683	  C3      1    UNL1	 -0.174132
    127     C	-0.3138186584  2.4433468574 -0.6573650683	  C3      1    UNL1	 -0.190210
    128     C	 2.4848349395  0.0182997103 -0.6573650683	  C3      1    UNL1	 -0.191028
    129     C	 1.9911735698  1.0296304639 -1.4479799405	  C3      1    UNL1	 -0.181249
    130     C	 1.4511735698  1.9649379000 -1.4479799405	  C3      1    UNL1	 -0.178757
    131     C	-0.9930426840  2.1732051736 -0.1493650691	  C3      1    UNL1	 -0.190111
    132     C	-1.9518186591  1.7353468570 -0.1493650691	  C3      1    UNL1	 -0.182725
    133     C	-2.5216682572  0.8486435744 -0.1493650691	  C3      1    UNL1	 -0.185823
    134     C	-0.4664672017  2.4658816317 -1.2293650691	  C3      1    UNL1	 -0.180501
    135     C	-1.4927729870  2.3412655478 -1.2293650691	  C3      1    UNL1	 -0.170914
    136     C	-2.3436096471  1.7539754054 -1.2293650691	  C3      1    UNL1	 -0.167333
    137     C	-2.8240607567  0.8385522985 -1.2293650691	  C3      1    UNL1	 -0.167653
    138     C	-2.8240607567 -0.1952913713 -1.2293650691	  C3      1    UNL1	 -0.170732
    139     C	-2.3436096471 -1.1107144782 -1.2293650691	  C3      1    UNL1	 -0.176204
    140     C	-1.4927729870 -1.6980046206 -1.2293650691	  C3      1    UNL1	 -0.186941
    141     C	 1.1437884412  0.3216304636 -2.3093650691	  C3      1    UNL1	 -0.182649
    142     C	 0.8468349388  1.3329612172 -2.3093650691	  C3      1    UNL1	 -0.178164
    143     C	 0.0502550704  2.0232016023 -2.3093650691	  C3      1    UNL1	 -0.171545
    144     C	-0.9930426840  2.1732051736 -2.3093650691	  C3      1    UNL1	 -0.164313
    145     C	-1.9518186591  1.7353468570 -2.3093650691	  C3      1    UNL1	 -0.159852
    146     C	-2.5216682572  0.8486435744 -2.3093650691	  C3      1    UNL1	 -0.158975
    147     C	-2.5216682572 -0.2053826472 -2.3093650691	  C3      1    UNL1	 -0.161540
    148     C	-1.9518186591 -1.0920859298 -2.3093650691	  C3      1    UNL1	 -0.167416
    149     C	-0.9930426840 -1.5299442464 -2.3093650691	  C3      1    UNL1	 -0.177679
    150     C	 0.0502550704 -1.3799406751 -2.3093650691	  C3      1    UNL1	 -0.190922
    151     C	 0.8468349388 -0.6897002900 -2.3093650691	  C3      1    UNL1	 -0.191617
    152     C	 0.3531735690  0.3216304636 -3.0999799412	  C3      1    UNL1	 -0.168948
    153     C	-0.1868264310  1.2569378997 -3.0999799412	  C3      1    UNL1	 -0.163459
    154     C	-1.2668264310  1.2569378997 -3.0999799412	  C3      1    UNL1	 -0.157802
    155     C	-1.8068264310  0.3216304636 -3.0999799412	  C3      1    UNL1	 -0.157212
    156     C	-1.2668264310 -0.6136769725 -3.0999799412	  C3      1    UNL1	 -0.162948
    157     C	-0.1868264310 -0.6136769725 -3.0999799412	  C3      1    UNL1	 -0.169970
    158     C	-0.7268264310  0.3216304636 -3.3893650691	  C3      1    UNL1	 -0.160499
    159     C	-0.8328264311 -0.1583695366  3.1816349320	  C3      1    UNL1	 -0.163668
    160     C	 0.2471735689 -0.1583695366  2.8922498042	  C3      1    UNL1	 -0.176810
    161     C	-0.2928264311  0.7769378995  2.8922498042	  C3      1    UNL1	 -0.175160
    162     C	-1.3728264311  0.7769378995  2.8922498042	  C3      1    UNL1	 -0.163752
    163     C	-1.9128264311 -0.1583695366  2.8922498042	  C3      1    UNL1	 -0.157699
    164     C	-1.3728264311 -1.0936769727  2.8922498042	  C3      1    UNL1	 -0.160398
    165     C	-0.2928264311 -1.0936769727  2.8922498042	  C3      1    UNL1	 -0.169134
    166     C	-1.0990426841  1.6932051734  2.1016349320	  C3      1    UNL1	 -0.176512
    167     C	-2.0578186592  1.2553468568  2.1016349320	  C3      1    UNL1	 -0.165276
    168     C	-2.6276682573  0.3686435742  2.1016349320	  C3      1    UNL1	 -0.159759
    169     C	-2.6276682573 -0.6853826474  2.1016349320	  C3      1    UNL1	 -0.158372
    170     C	-2.0578186592 -1.5720859301  2.1016349320	  C3      1    UNL1	 -0.161505
    171     C	-1.0990426841 -2.0099442466  2.1016349320	  C3      1    UNL1	 -0.169585
    172     C	-0.0557449296 -1.8599406753  2.1016349320	  C3      1    UNL1	 -0.181677
    173     C	 0.7408349387 -1.1697002903  2.1016349320	  C3      1    UNL1	 -0.191381
    174     C	-1.5987729871  1.8612655476  1.0216349320	  C3      1    UNL1	 -0.180307
    175     C	-2.4496096471  1.2739754052  1.0216349320	  C3      1    UNL1	 -0.171929
    176     C	-2.9300607567  0.3585522982  1.0216349320	  C3      1    UNL1	 -0.167431
    177     C	-2.9300607567 -0.6752913715  1.0216349320	  C3      1    UNL1	 -0.165757
    178     C	-2.4496096471 -1.5907144784  1.0216349320	  C3      1    UNL1	 -0.167869
    179     C	-1.5987729871 -2.1780046208  1.0216349320	  C3      1    UNL1	 -0.175866
    180     C	-2.6276682573  0.3686435742 -0.0583650680	  C3      1    UNL1	 -0.187323
    181     C	-2.6276682573 -0.6853826474 -0.0583650680	  C3      1    UNL1	 -0.182127
    182     C	-2.0578186592 -1.5720859301 -0.0583650680	  C3      1    UNL1	 -0.183547
    183     C	 1.7085110557 -1.2013695371  1.9879892804	  C3      1    UNL1	 -0.173024
    184     C	 1.1813423127 -2.1144525842  1.9879892804	  C3      1    UNL1	 -0.164566
    185     C	 2.5540240720 -1.2013695371  1.3137151499	  C3      1    UNL1	 -0.166432
    186     C	-0.5899639248 -2.6371807456  1.3137151499	  C3      1    UNL1	 -0.171418
    187     C	 0.3837966526 -3.0818823008  1.3137151499	  C3      1    UNL1	 -0.157703
    188     C	 1.4433999908 -2.9295343405  1.3137151499	  C3      1    UNL1	 -0.153222
    189     C	 2.2524295166 -2.2285062658  1.3137151499	  C3      1    UNL1	 -0.155705
    190     C	 3.0232483962 -1.2013695371  0.3393608009	  C3      1    UNL1	 -0.161568
    191     C	-0.8229204246 -3.0535868209  0.3393608009	  C3      1    UNL1	 -0.162385
    192     C	 0.1270048266 -3.5110467116  0.3393608009	  C3      1    UNL1	 -0.152711
    193     C	 1.1813423127 -3.5110467116  0.3393608009	  C3      1    UNL1	 -0.148009
    194     C	 2.1312675639 -3.0535868209  0.3393608009	  C3      1    UNL1	 -0.147640
    195     C	 2.7886362341 -2.2292725811  0.3393608009	  C3      1    UNL1	 -0.151757
    196     C	 3.0232483962 -1.2013695371 -0.7420909381	  C3      1    UNL1	 -0.158278
    197     C	 2.7886362341 -0.1734664931 -0.7420909381	  C3      1    UNL1	 -0.174319
    198     C	-1.4802890949 -2.2292725811 -0.7420909381	  C3      1    UNL1	 -0.174431
    199     C	-0.8229204246 -3.0535868209 -0.7420909381	  C3      1    UNL1	 -0.159581
    200     C	 0.1270048266 -3.5110467116 -0.7420909381	  C3      1    UNL1	 -0.150963
    201     C	 1.1813423127 -3.5110467116 -0.7420909381	  C3      1    UNL1	 -0.146575
    202     C	 2.1312675639 -3.0535868209 -0.7420909381	  C3      1    UNL1	 -0.146188
    203     C	 2.7886362341 -2.2292725811 -0.7420909381	  C3      1    UNL1	 -0.149909
    204     C	 2.5540240720 -1.2013695371 -1.7164452871	  C3      1    UNL1	 -0.157797
    205     C	 2.2524295166 -0.1742328085 -1.7164452871	  C3      1    UNL1	 -0.170933
    206     C	-0.5899639248 -2.6371807456 -1.7164452871	  C3      1    UNL1	 -0.162613
    207     C	 0.3837966526 -3.0818823008 -1.7164452871	  C3      1    UNL1	 -0.152603
    208     C	 1.4433999908 -2.9295343405 -1.7164452871	  C3      1    UNL1	 -0.148915
    209     C	 2.2524295166 -2.2285062658 -1.7164452871	  C3      1    UNL1	 -0.150694
    210     C	 1.7085110557 -1.2013695371 -2.3907194176	  C3      1    UNL1	 -0.161884
    211     C	 0.1270048266 -2.1144525842 -2.3907194176	  C3      1    UNL1	 -0.164685
    212     C	 1.1813423127 -2.1144525842 -2.3907194176	  C3      1    UNL1	 -0.156717
    213     C	 0.6541735696 -1.2013695371 -2.6313650686	  C3      1    UNL1	 -0.173205
    214     C	 0.9111735698  1.0296304639  2.8526349317	  C3      1    UNL1	 -0.166517
    215     C	 1.9655110558  1.0296304639  2.6119892807	  C3      1    UNL1	 -0.157338
    216     C	 1.4383423128  1.9427135110  2.6119892807	  C3      1    UNL1	 -0.154227
    217     C	 0.3840048267  1.9427135110  2.6119892807	  C3      1    UNL1	 -0.163032
    218     C	 1.4383423128  0.1165474168  2.6119892807	  C3      1    UNL1	 -0.170742
    219     C	 2.8110240722  1.0296304639  1.9377151502	  C3      1    UNL1	 -0.153616
    220     C	 2.5094295167  2.0567671926  1.9377151502	  C3      1    UNL1	 -0.148385
    221     C	 1.7003999909  2.7577952673  1.9377151502	  C3      1    UNL1	 -0.148428
    222     C	 0.6407966528  2.9101432276  1.9377151502	  C3      1    UNL1	 -0.153647
    223     C	-0.3329639246  2.4654416725  1.9377151502	  C3      1    UNL1	 -0.165214
    224     C	 1.7003999909 -0.6985343394  1.9377151502	  C3      1    UNL1	 -0.182888
    225     C	 2.5094295167  0.0024937353  1.9377151502	  C3      1    UNL1	 -0.164714
    226     C	 3.2802483964  1.0296304639  0.9633608012	  C3      1    UNL1	 -0.153578
    227     C	 3.0456362343  2.0575335080  0.9633608012	  C3      1    UNL1	 -0.147774
    228     C	 2.3882675640  2.8818477477  0.9633608012	  C3      1    UNL1	 -0.146149
    229     C	 1.4383423128  3.3393076384  0.9633608012	  C3      1    UNL1	 -0.148307
    230     C	 0.3840048267  3.3393076384  0.9633608012	  C3      1    UNL1	 -0.154072
    231     C	-0.5659204245  2.8818477477  0.9633608012	  C3      1    UNL1	 -0.164119
    232     C	 3.0456362343  0.0017274199  0.9633608012	  C3      1    UNL1	 -0.165143
    233     C	 3.2802483964  1.0296304639 -0.1180909378	  C3      1    UNL1	 -0.156374
    234     C	 3.0456362343  2.0575335080 -0.1180909378	  C3      1    UNL1	 -0.150229
    235     C	 2.3882675640  2.8818477477 -0.1180909378	  C3      1    UNL1	 -0.148646
    236     C	 1.4383423128  3.3393076384 -0.1180909378	  C3      1    UNL1	 -0.151029
    237     C	 0.3840048267  3.3393076384 -0.1180909378	  C3      1    UNL1	 -0.157381
    238     C	-0.5659204245  2.8818477477 -0.1180909378	  C3      1    UNL1	 -0.168860
    239     C	 3.0456362343  0.0017274199 -0.1180909378	  C3      1    UNL1	 -0.169941
    240     C	 2.8110240722  1.0296304639 -1.0924452868	  C3      1    UNL1	 -0.161622
    241     C	 2.5094295167  2.0567671926 -1.0924452868	  C3      1    UNL1	 -0.155583
    242     C	 1.7003999909  2.7577952673 -1.0924452868	  C3      1    UNL1	 -0.156261
    243     C	 0.6407966528  2.9101432276 -1.0924452868	  C3      1    UNL1	 -0.163818
    244     C	 1.9655110558  1.0296304639 -1.7667194173	  C3      1    UNL1	 -0.170750
    245     C	 1.4383423128  1.9427135110 -1.7667194173	  C3      1    UNL1	 -0.168293
    246     C	-1.2539951740  2.6313076381 -0.6886391996	  C3      1    UNL1	 -0.166056
    247     C	-2.2039204252  2.1738477474 -0.6886391996	  C3      1    UNL1	 -0.160252
    248     C	-2.8612890955  1.3495335076 -0.6886391996	  C3      1    UNL1	 -0.159653
    249     C	-3.0959012576  0.3216304636 -0.6886391996	  C3      1    UNL1	 -0.162227
    250     C	-2.8612890955 -0.7062725804 -0.6886391996	  C3      1    UNL1	 -0.167040
    251     C	-2.2039204252 -1.5305868202 -0.6886391996	  C3      1    UNL1	 -0.174444
    252     C	 0.7502675632  2.1738477474 -1.7700909386	  C3      1    UNL1	 -0.174027
    253     C	-0.1996576880  2.6313076381 -1.7700909386	  C3      1    UNL1	 -0.163003
    254     C	-1.2539951740  2.6313076381 -1.7700909386	  C3      1    UNL1	 -0.154986
    255     C	-2.2039204252  2.1738477474 -1.7700909386	  C3      1    UNL1	 -0.150756
    256     C	-2.8612890955  1.3495335076 -1.7700909386	  C3      1    UNL1	 -0.149591
    257     C	-3.0959012576  0.3216304636 -1.7700909386	  C3      1    UNL1	 -0.150875
    258     C	-2.8612890955 -0.7062725804 -1.7700909386	  C3      1    UNL1	 -0.154298
    259     C	-2.2039204252 -1.5305868202 -1.7700909386	  C3      1    UNL1	 -0.160363
    260     C	-1.2539951740 -1.9880467109 -1.7700909386	  C3      1    UNL1	 -0.171821
    261     C	 1.1730240714  0.3216304636 -2.7444452876	  C3      1    UNL1	 -0.165496
    262     C	 0.8714295160  1.3487671923 -2.7444452876	  C3      1    UNL1	 -0.160800
    263     C	 0.0623999901  2.0497952670 -2.7444452876	  C3      1    UNL1	 -0.155020
    264     C	-0.9972033480  2.2021432272 -2.7444452876	  C3      1    UNL1	 -0.149199
    265     C	-1.9709639254  1.7574416721 -2.7444452876	  C3      1    UNL1	 -0.145549
    266     C	-2.5497196390  0.8568802033 -2.7444452876	  C3      1    UNL1	 -0.144807
    267     C	-2.5497196390 -0.2136192761 -2.7444452876	  C3      1    UNL1	 -0.146963
    268     C	-1.9709639254 -1.1141807449 -2.7444452876	  C3      1    UNL1	 -0.151976
    269     C	-0.9972033480 -1.5588823000 -2.7444452876	  C3      1    UNL1	 -0.160148
    270     C	 0.0623999901 -1.4065343398 -2.7444452876	  C3      1    UNL1	 -0.169301
    271     C	 0.8714295160 -0.7055062651 -2.7444452876	  C3      1    UNL1	 -0.170765
    272     C	 0.3275110550  0.3216304636 -3.4187194181	  C3      1    UNL1	 -0.154137
    273     C	-0.1996576880  1.2347135107 -3.4187194181	  C3      1    UNL1	 -0.149479
    274     C	-1.2539951740  1.2347135107 -3.4187194181	  C3      1    UNL1	 -0.144908
    275     C	-1.7811639171  0.3216304636 -3.4187194181	  C3      1    UNL1	 -0.144488
    276     C	-1.2539951740 -0.5914525835 -3.4187194181	  C3      1    UNL1	 -0.149093
    277     C	-0.1996576880 -0.5914525835 -3.4187194181	  C3      1    UNL1	 -0.154703
    278     C	-0.7268264310  0.3216304636 -3.6593650691	  C3      1    UNL1	 -0.147401
    279     C	-0.8328264311 -0.1583695366  3.4516349320	  C3      1    UNL1	 -0.150657
    280     C	 0.2215110550 -0.1583695366  3.2109892810	  C3      1    UNL1	 -0.161141
    281     C	-0.3056576880  0.7547135105  3.2109892810	  C3      1    UNL1	 -0.159480
    282     C	-1.3599951741  0.7547135105  3.2109892810	  C3      1    UNL1	 -0.150420
    283     C	-1.8871639171 -0.1583695366  3.2109892810	  C3      1    UNL1	 -0.145489
    284     C	-1.3599951741 -1.0714525837  3.2109892810	  C3      1    UNL1	 -0.147632
    285     C	-0.3056576880 -1.0714525837  3.2109892810	  C3      1    UNL1	 -0.154785
    286     C	 1.0670240713 -0.1583695366  2.5367151505	  C3      1    UNL1	 -0.179949
    287     C	-1.1032033481  1.7221432270  2.5367151505	  C3      1    UNL1	 -0.160329
    288     C	-2.0769639255  1.2774416719  2.5367151505	  C3      1    UNL1	 -0.150831
    289     C	-2.6557196390  0.3768802030  2.5367151505	  C3      1    UNL1	 -0.146001
    290     C	-2.6557196390 -0.6936192763  2.5367151505	  C3      1    UNL1	 -0.144832
    291     C	-2.0769639255 -1.5941807451  2.5367151505	  C3      1    UNL1	 -0.147431
    292     C	-1.1032033481 -2.0388823003  2.5367151505	  C3      1    UNL1	 -0.153920
    293     C	-0.0436000099 -1.8865343400  2.5367151505	  C3      1    UNL1	 -0.163245
    294     C	 0.7654295159 -1.1855062653  2.5367151505	  C3      1    UNL1	 -0.171735
    295     C	-1.3599951741  2.1513076379  1.5623608015	  C3      1    UNL1	 -0.167080
    296     C	-2.3099204253  1.6938477471  1.5623608015	  C3      1    UNL1	 -0.156837
    297     C	-2.9672890956  0.8695335074  1.5623608015	  C3      1    UNL1	 -0.151586
    298     C	-3.2019012577 -0.1583695366  1.5623608015	  C3      1    UNL1	 -0.149072
    299     C	-2.9672890956 -1.1862725806  1.5623608015	  C3      1    UNL1	 -0.149234
    300     C	-2.3099204253 -2.0105868204  1.5623608015	  C3      1    UNL1	 -0.152714
    301     C	-1.3599951741 -2.4680467111  1.5623608015	  C3      1    UNL1	 -0.160802
    302     C	-2.3099204253  1.6938477471  0.4809090625	  C3      1    UNL1	 -0.168410
    303     C	-2.9672890956  0.8695335074  0.4809090625	  C3      1    UNL1	 -0.162446
    304     C	-3.2019012577 -0.1583695366  0.4809090625	  C3      1    UNL1	 -0.158937
    305     C	-2.9672890956 -1.1862725806  0.4809090625	  C3      1    UNL1	 -0.158321
    306     C	-2.3099204253 -2.0105868204  0.4809090625	  C3      1    UNL1	 -0.162037
    307     C	-1.3599951741 -2.4680467111  0.4809090625	  C3      1    UNL1	 -0.173902
    308     C	-2.0769639255 -1.5941807451 -0.4934452865	  C3      1    UNL1	 -0.178538
    309     C	 1.6874188370 -1.2013695371  2.2931096692	  C3      1    UNL1	 -0.162635
    310     C	 1.1707962033 -2.0961861870  2.2931096692	  C3      1    UNL1	 -0.154907
    311     C	 2.5633618788 -1.2013695371  1.7078232406	  C3      1    UNL1	 -0.156227
    312     C	 0.3824677442 -3.0911250622  1.7078232406	  C3      1    UNL1	 -0.148409
    313     C	 1.4472790559 -2.9380283083  1.7078232406	  C3      1    UNL1	 -0.144085
    314     C	 2.2602849796 -2.2335546653  1.7078232406	  C3      1    UNL1	 -0.146319
    315     C	 3.1486483074 -1.2013695371  0.8318801988	  C3      1    UNL1	 -0.151638
    316     C	-0.9011059904 -3.1516284193  0.8318801988	  C3      1    UNL1	 -0.153039
    317     C	 0.0991007213 -3.6333025852  0.8318801988	  C3      1    UNL1	 -0.143142
    318     C	 1.2092464180 -3.6333025852  0.8318801988	  C3      1    UNL1	 -0.138586
    319     C	 2.2094531296 -3.1516284193  0.8318801988	  C3      1    UNL1	 -0.138203
    320     C	 2.9016176501 -2.2836815635  0.8318801988	  C3      1    UNL1	 -0.142070
    321     C	 3.3541735696 -1.2013695371 -0.2013650686	  C3      1    UNL1	 -0.148159
    322     C	-1.2550147396 -3.1105578463 -0.2013650686	  C3      1    UNL1	 -0.152045
    323     C	-0.3790716978 -3.6958442749 -0.2013650686	  C3      1    UNL1	 -0.142784
    324     C	 0.6541735696 -3.9013695371 -0.2013650686	  C3      1    UNL1	 -0.137451
    325     C	 1.6874188370 -3.6958442749 -0.2013650686	  C3      1    UNL1	 -0.135236
    326     C	 2.5633618788 -3.1105578463 -0.2013650686	  C3      1    UNL1	 -0.136026
    327     C	 3.1486483074 -2.2346148045 -0.2013650686	  C3      1    UNL1	 -0.140021
    328     C	 3.1486483074 -1.2013695371 -1.2346103360	  C3      1    UNL1	 -0.146307
    329     C	 2.9016176501 -0.1190575108 -1.2346103360	  C3      1    UNL1	 -0.159759
    330     C	-1.5932705109 -2.2836815635 -1.2346103360	  C3      1    UNL1	 -0.163286
    331     C	-0.9011059904 -3.1516284193 -1.2346103360	  C3      1    UNL1	 -0.148394
    332     C	 0.0991007213 -3.6333025852 -1.2346103360	  C3      1    UNL1	 -0.140228
    333     C	 1.2092464180 -3.6333025852 -1.2346103360	  C3      1    UNL1	 -0.136217
    334     C	 2.2094531296 -3.1516284193 -1.2346103360	  C3      1    UNL1	 -0.135806
    335     C	 2.9016176501 -2.2836815635 -1.2346103360	  C3      1    UNL1	 -0.139002
    336     C	 2.5633618788 -1.2013695371 -2.1105533778	  C3      1    UNL1	 -0.146978
    337     C	 2.2602849796 -0.1691844090 -2.1105533778	  C3      1    UNL1	 -0.158922
    338     C	-0.5960788878 -2.6442377892 -2.1105533778	  C3      1    UNL1	 -0.152128
    339     C	 0.3824677442 -3.0911250622 -2.1105533778	  C3      1    UNL1	 -0.142650
    340     C	 1.4472790559 -2.9380283083 -2.1105533778	  C3      1    UNL1	 -0.139212
    341     C	 2.2602849796 -2.2335546653 -2.1105533778	  C3      1    UNL1	 -0.140678
    342     C	 1.6874188370 -1.2013695371 -2.6958398064	  C3      1    UNL1	 -0.151425
    343     C	 0.1375509359 -2.0961861870 -2.6958398064	  C3      1    UNL1	 -0.153949
    344     C	 1.1707962033 -2.0961861870 -2.6958398064	  C3      1    UNL1	 -0.146678
    345     C	 0.9111735698  1.0296304639  3.1226349317	  C3      1    UNL1	 -0.154549
    346     C	 1.9444188371  1.0296304639  2.9171096695	  C3      1    UNL1	 -0.146518
    347     C	 1.4277962034  1.9244471138  2.9171096695	  C3      1    UNL1	 -0.143820
    348     C	 0.3945509361  1.9244471138  2.9171096695	  C3      1    UNL1	 -0.151527
    349     C	 1.4277962034  0.1348138140  2.9171096695	  C3      1    UNL1	 -0.158282
    350     C	 2.8203618790  1.0296304639  2.3318232409	  C3      1    UNL1	 -0.142716
    351     C	 2.5172849797  2.0618155921  2.3318232409	  C3      1    UNL1	 -0.138203
    352     C	 1.7042790560  2.7662892351  2.3318232409	  C3      1    UNL1	 -0.138277
    353     C	 0.6394677443  2.9193859890  2.3318232409	  C3      1    UNL1	 -0.142970
    354     C	-0.3390788876  2.4724987160  2.3318232409	  C3      1    UNL1	 -0.153569
    355     C	 1.7042790560 -0.7070283073  2.3318232409	  C3      1    UNL1	 -0.167745
    356     C	 2.5172849797 -0.0025546642  2.3318232409	  C3      1    UNL1	 -0.152320
    357     C	 3.4056483075  1.0296304639  1.4558801991	  C3      1    UNL1	 -0.141814
    358     C	 3.1586176503  2.1119424903  1.4558801991	  C3      1    UNL1	 -0.136691
    359     C	 2.4664531298  2.9798893462  1.4558801991	  C3      1    UNL1	 -0.135259
    360     C	 1.4662464181  3.4615635120  1.4558801991	  C3      1    UNL1	 -0.137182
    361     C	 0.3561007214  3.4615635120  1.4558801991	  C3      1    UNL1	 -0.142489
    362     C	-0.6441059902  2.9798893462  1.4558801991	  C3      1    UNL1	 -0.152202
    363     C	 3.1586176503 -0.0526815624  1.4558801991	  C3      1    UNL1	 -0.151844
    364     C	 3.6111735698  1.0296304639  0.4226349317	  C3      1    UNL1	 -0.143187
    365     C	 3.4056483075  2.0628757313  0.4226349317	  C3      1    UNL1	 -0.137852
    366     C	 2.8203618790  2.9388187731  0.4226349317	  C3      1    UNL1	 -0.135864
    367     C	 1.9444188371  3.5241052017  0.4226349317	  C3      1    UNL1	 -0.136735
    368     C	 0.9111735698  3.7296304639  0.4226349317	  C3      1    UNL1	 -0.140365
    369     C	-0.1220716976  3.5241052017  0.4226349317	  C3      1    UNL1	 -0.147060
    370     C	-0.9980147394  2.9388187731  0.4226349317	  C3      1    UNL1	 -0.158157
    371     C	 3.4056483075 -0.0036148035  0.4226349317	  C3      1    UNL1	 -0.153582
    372     C	 3.4056483075  1.0296304639 -0.6106103357	  C3      1    UNL1	 -0.146532
    373     C	 3.1586176503  2.1119424903 -0.6106103357	  C3      1    UNL1	 -0.140698
    374     C	 2.4664531298  2.9798893462 -0.6106103357	  C3      1    UNL1	 -0.139310
    375     C	 1.4662464181  3.4615635120 -0.6106103357	  C3      1    UNL1	 -0.141739
    376     C	 0.3561007214  3.4615635120 -0.6106103357	  C3      1    UNL1	 -0.148374
    377     C	-0.6441059902  2.9798893462 -0.6106103357	  C3      1    UNL1	 -0.161401
    378     C	 3.1586176503 -0.0526815624 -0.6106103357	  C3      1    UNL1	 -0.159828
    379     C	 2.8203618790  1.0296304639 -1.4865533775	  C3      1    UNL1	 -0.152059
    380     C	 2.5172849797  2.0618155921 -1.4865533775	  C3      1    UNL1	 -0.146409
    381     C	 1.7042790560  2.7662892351 -1.4865533775	  C3      1    UNL1	 -0.147287
    382     C	 0.6394677443  2.9193859890 -1.4865533775	  C3      1    UNL1	 -0.155183
    383     C	 1.9444188371  1.0296304639 -2.0718398061	  C3      1    UNL1	 -0.161710
    384     C	 1.4277962034  1.9244471138 -2.0718398061	  C3      1    UNL1	 -0.159315
    385     C	-1.2818992794  2.7535635117 -0.1961198017	  C3      1    UNL1	 -0.161194
    386     C	-2.2821059910  2.2718893458 -0.1961198017	  C3      1    UNL1	 -0.154599
    387     C	-2.9742705115  1.4039424900 -0.1961198017	  C3      1    UNL1	 -0.154331
    388     C	-3.2213011688  0.3216304636 -0.1961198017	  C3      1    UNL1	 -0.157767
    389     C	-0.7268264310  3.0216304636 -1.2293650691	  C3      1    UNL1	 -0.153348
    390     C	-1.7600716984  2.8161052014 -1.2293650691	  C3      1    UNL1	 -0.146249
    391     C	-2.6360147402  2.2308187728 -1.2293650691	  C3      1    UNL1	 -0.143117
    392     C	-3.2213011688  1.3548757310 -1.2293650691	  C3      1    UNL1	 -0.142699
    393     C	-3.4268264310  0.3216304636 -1.2293650691	  C3      1    UNL1	 -0.144293
    394     C	-3.2213011688 -0.7116148038 -1.2293650691	  C3      1    UNL1	 -0.147597
    395     C	-2.6360147402 -1.5875578456 -1.2293650691	  C3      1    UNL1	 -0.152953
    396     C	-1.7600716984 -2.1728442742 -1.2293650691	  C3      1    UNL1	 -0.162535
    397     C	 1.5206176495  1.4039424900 -2.2626103365	  C3      1    UNL1	 -0.161453
    398     C	 0.8284531290  2.2718893458 -2.2626103365	  C3      1    UNL1	 -0.155051
    399     C	-0.1717535826  2.7535635117 -2.2626103365	  C3      1    UNL1	 -0.147172
    400     C	-1.2818992794  2.7535635117 -2.2626103365	  C3      1    UNL1	 -0.140980
    401     C	-2.2821059910  2.2718893458 -2.2626103365	  C3      1    UNL1	 -0.137430
    402     C	-2.9742705115  1.4039424900 -2.2626103365	  C3      1    UNL1	 -0.136326
    403     C	-3.2213011688  0.3216304636 -2.2626103365	  C3      1    UNL1	 -0.137341
    404     C	-2.9742705115 -0.7606815628 -2.2626103365	  C3      1    UNL1	 -0.140321
    405     C	-2.2821059910 -1.6286284186 -2.2626103365	  C3      1    UNL1	 -0.145650
    406     C	-1.2818992794 -2.1103025845 -2.2626103365	  C3      1    UNL1	 -0.154753
    407     C	 1.1823618782  0.3216304636 -3.1385533783	  C3      1    UNL1	 -0.151002
    408     C	 0.8792849789  1.3538155918 -3.1385533783	  C3      1    UNL1	 -0.146834
    409     C	 0.0662790553  2.0582892348 -3.1385533783	  C3      1    UNL1	 -0.141896
    410     C	-0.9985322565  2.2113859886 -3.1385533783	  C3      1    UNL1	 -0.137132
    411     C	-1.9770788884  1.7644987156 -3.1385533783	  C3      1    UNL1	 -0.134124
    412     C	-2.5586791990  0.8595109674 -3.1385533783	  C3      1    UNL1	 -0.133508
    413     C	-2.5586791990 -0.2162500402 -3.1385533783	  C3      1    UNL1	 -0.135333
    414     C	-1.9770788884 -1.1212377884 -3.1385533783	  C3      1    UNL1	 -0.139562
    415     C	-0.9985322565 -1.5681250614 -3.1385533783	  C3      1    UNL1	 -0.146099
    416     C	 0.0662790553 -1.4150283076 -3.1385533783	  C3      1    UNL1	 -0.152837
    417     C	 0.8792849789 -0.7105546646 -3.1385533783	  C3      1    UNL1	 -0.154399
    418     C	 0.3064188364  0.3216304636 -3.7238398069	  C3      1    UNL1	 -0.141926
    419     C	-0.2102037973  1.2164471135 -3.7238398069	  C3      1    UNL1	 -0.137995
    420     C	-1.2434490647  1.2164471135 -3.7238398069	  C3      1    UNL1	 -0.134208
    421     C	-1.7600716984  0.3216304636 -3.7238398069	  C3      1    UNL1	 -0.133890
    422     C	-1.2434490647 -0.5731861863 -3.7238398069	  C3      1    UNL1	 -0.137676
    423     C	-0.2102037973 -0.5731861863 -3.7238398069	  C3      1    UNL1	 -0.142241
    424     C	-0.7268264310  0.3216304636 -3.9293650691	  C3      1    UNL1	 -0.136467
    425     C	-0.8328264311 -0.1583695366  3.7216349320	  C3      1    UNL1	 -0.139701
    426     C	 0.2004188363 -0.1583695366  3.5161096698	  C3      1    UNL1	 -0.148149
    427     C	-0.3162037974  0.7364471133  3.5161096698	  C3      1    UNL1	 -0.146620
    428     C	-1.3494490648  0.7364471133  3.5161096698	  C3      1    UNL1	 -0.139311
    429     C	-1.8660716985 -0.1583695366  3.5161096698	  C3      1    UNL1	 -0.135216
    430     C	-1.3494490648 -1.0531861865  3.5161096698	  C3      1    UNL1	 -0.136969
    431     C	-0.3162037974 -1.0531861865  3.5161096698	  C3      1    UNL1	 -0.142915
    432     C	 1.0763618781 -0.1583695366  2.9308232412	  C3      1    UNL1	 -0.162513
    433     C	-0.0397209448  1.5782892346  2.9308232412	  C3      1    UNL1	 -0.158359
    434     C	-1.1045322565  1.7313859884  2.9308232412	  C3      1    UNL1	 -0.147003
    435     C	-2.0830788885  1.2844987154  2.9308232412	  C3      1    UNL1	 -0.139131
    436     C	-2.6646791991  0.3795109672  2.9308232412	  C3      1    UNL1	 -0.134966
    437     C	-2.6646791991 -0.6962500405  2.9308232412	  C3      1    UNL1	 -0.133966
    438     C	-2.0830788885 -1.6012377887  2.9308232412	  C3      1    UNL1	 -0.136128
    439     C	-1.1045322565 -2.0481250617  2.9308232412	  C3      1    UNL1	 -0.141417
    440     C	-0.0397209448 -1.8950283078  2.9308232412	  C3      1    UNL1	 -0.148868
    441     C	 0.7732849789 -1.1905546648  2.9308232412	  C3      1    UNL1	 -0.156052
    442     C	-1.3878992794  2.2735635115  2.0548801994	  C3      1    UNL1	 -0.152252
    443     C	-2.3881059911  1.7918893456  2.0548801994	  C3      1    UNL1	 -0.143238
    444     C	-3.0802705116  0.9239424897  2.0548801994	  C3      1    UNL1	 -0.138420
    445     C	-3.3273011688 -0.1583695366  2.0548801994	  C3      1    UNL1	 -0.136208
    446     C	-3.0802705116 -1.2406815630  2.0548801994	  C3      1    UNL1	 -0.136424
    447     C	-2.3881059911 -2.1086284188  2.0548801994	  C3      1    UNL1	 -0.139444
    448     C	-1.3878992794 -2.5903025847  2.0548801994	  C3      1    UNL1	 -0.145951
    449     C	-0.2777535827 -2.5903025847  2.0548801994	  C3      1    UNL1	 -0.156471
    450     C	-1.8660716985  2.3361052012  1.0216349320	  C3      1    UNL1	 -0.156278
    451     C	-2.7420147403  1.7508187726  1.0216349320	  C3      1    UNL1	 -0.148716
    452     C	-3.3273011688  0.8748757308  1.0216349320	  C3      1    UNL1	 -0.144370
    453     C	-3.5328264311 -0.1583695366  1.0216349320	  C3      1    UNL1	 -0.142059
    454     C	-3.3273011688 -1.1916148040  1.0216349320	  C3      1    UNL1	 -0.141831
    455     C	-2.7420147403 -2.0675578458  1.0216349320	  C3      1    UNL1	 -0.144270
    456     C	-1.8660716985 -2.6528442744  1.0216349320	  C3      1    UNL1	 -0.150649
    457     C	-3.0802705116  0.9239424897 -0.0116103354	  C3      1    UNL1	 -0.158154
    458     C	-3.3273011688 -0.1583695366 -0.0116103354	  C3      1    UNL1	 -0.153729
    459     C	-3.0802705116 -1.2406815630 -0.0116103354	  C3      1    UNL1	 -0.152515
    460     C	-2.3881059911 -2.1086284188 -0.0116103354	  C3      1    UNL1	 -0.156049
