@<TRIPOS>MOLECULE
*****
 460 0 0 0 0
SMALL
GASTEIGER

@<TRIPOS>ATOM
      1     C	-1.0248264307  1.7726620331 -0.0233650685	  C3      1    UNL1	-529.694255
      2     C	 0.6541735696 -1.2013695371  1.6886349314	  C3      1    UNL1	-555.418634
      3     C	 1.7650876965 -1.2013695371  1.3276770508	  C3      1    UNL1	-521.432850
      4     C	 0.0987165062 -2.1634493924  1.3276770508	  C3      1    UNL1	-527.406721
      5     C	 1.2096306331 -2.1634493924  1.3276770508	  C3      1    UNL1	-496.723626
      6     C	 2.4516703854 -1.2013695371  0.3826770508	  C3      1    UNL1	-504.902297
      7     C	-0.8000319017 -2.2579116565  0.3826770508	  C3      1    UNL1	-529.153879
      8     C	 0.0987165062 -2.9108905968  0.3826770508	  C3      1    UNL1	-486.005588
      9     C	 1.2096306331 -2.9108905968  0.3826770508	  C3      1    UNL1	-466.374644
     10     C	 2.1083790409 -2.2579116565  0.3826770508	  C3      1    UNL1	-472.320765
     11     C	 2.4516703854 -1.2013695371 -0.7854071880	  C3      1    UNL1	-493.132561
     12     C	 2.1083790409 -0.1448274178 -0.7854071880	  C3      1    UNL1	-540.689827
     13     C	-0.8000319017 -2.2579116565 -0.7854071880	  C3      1    UNL1	-513.863783
     14     C	 0.0987165062 -2.9108905968 -0.7854071880	  C3      1    UNL1	-478.634510
     15     C	 1.2096306331 -2.9108905968 -0.7854071880	  C3      1    UNL1	-460.255568
     16     C	 2.1083790409 -2.2579116565 -0.7854071880	  C3      1    UNL1	-465.674945
     17     C	 1.7650876965 -1.2013695371 -1.7304071880	  C3      1    UNL1	-496.580078
     18     C	 1.2096306331 -0.2392896819 -1.7304071880	  C3      1    UNL1	-532.887434
     19     C	 0.0987165062 -2.1634493924 -1.7304071880	  C3      1    UNL1	-503.250987
     20     C	 1.2096306331 -2.1634493924 -1.7304071880	  C3      1    UNL1	-480.088736
     21     C	 0.6541735696 -1.2013695371 -2.0913650686	  C3      1    UNL1	-528.933935
     22     C	 0.9111735698  1.0296304639  2.3126349317	  C3      1    UNL1	-517.157702
     23     C	 2.0220876966  1.0296304639  1.9516770511	  C3      1    UNL1	-487.741892
     24     C	 1.4666306332  1.9917103192  1.9516770511	  C3      1    UNL1	-475.886828
     25     C	 0.3557165063  1.9917103192  1.9516770511	  C3      1    UNL1	-505.388817
     26     C	 1.4666306332  0.0675506087  1.9516770511	  C3      1    UNL1	-529.523394
     27     C	 2.7086703856  1.0296304639  1.0066770511	  C3      1    UNL1	-482.287255
     28     C	 2.3653790411  2.0861725833  1.0066770511	  C3      1    UNL1	-461.892577
     29     C	 1.4666306332  2.7391515236  1.0066770511	  C3      1    UNL1	-465.064649
     30     C	 0.3557165063  2.7391515236  1.0066770511	  C3      1    UNL1	-488.169545
     31     C	-0.5430319016  2.0861725833  1.0066770511	  C3      1    UNL1	-526.435744
     32     C	 2.3653790411 -0.0269116554  1.0066770511	  C3      1    UNL1	-526.054497
     33     C	 2.7086703856  1.0296304639 -0.1614071877	  C3      1    UNL1	-492.894033
     34     C	 2.3653790411  2.0861725833 -0.1614071877	  C3      1    UNL1	-473.242482
     35     C	 1.4666306332  2.7391515236 -0.1614071877	  C3      1    UNL1	-476.696535
     36     C	 0.3557165063  2.7391515236 -0.1614071877	  C3      1    UNL1	-499.719170
     37     C	-0.5430319016  2.0861725833 -0.1614071877	  C3      1    UNL1	-535.668144
     38     C	 2.3653790411 -0.0269116554 -0.1614071877	  C3      1    UNL1	-545.368906
     39     C	 2.0220876966  1.0296304639 -1.1064071877	  C3      1    UNL1	-510.551668
     40     C	 1.4666306332  1.9917103192 -1.1064071877	  C3      1    UNL1	-503.734360
     41     C	 0.3557165063  1.9917103192 -1.1064071877	  C3      1    UNL1	-546.298248
     42     C	-1.2822834944  2.0311515233 -0.6453229497	  C3      1    UNL1	-508.756761
     43     C	-2.1810319023  1.3781725830 -0.6453229497	  C3      1    UNL1	-500.967971
     44     C	-2.5243232468  0.3216304636 -0.6453229497	  C3      1    UNL1	-510.178904
     45     C	-2.1810319023 -0.7349116558 -0.6453229497	  C3      1    UNL1	-525.189957
     46     C	 1.0706703848  0.3216304636 -1.8134071884	  C3      1    UNL1	-525.367180
     47     C	 0.7273790403  1.3781725830 -1.8134071884	  C3      1    UNL1	-523.558101
     48     C	-0.1713693676  2.0311515233 -1.8134071884	  C3      1    UNL1	-501.272731
     49     C	-1.2822834944  2.0311515233 -1.8134071884	  C3      1    UNL1	-477.497690
     50     C	-2.1810319023  1.3781725830 -1.8134071884	  C3      1    UNL1	-466.676856
     51     C	-2.5243232468  0.3216304636 -1.8134071884	  C3      1    UNL1	-469.380132
     52     C	-2.1810319023 -0.7349116558 -1.8134071884	  C3      1    UNL1	-483.422781
     53     C	-1.2822834944 -1.3878905961 -1.8134071884	  C3      1    UNL1	-511.335778
     54     C	 0.3840876958  0.3216304636 -2.7584071884	  C3      1    UNL1	-491.555068
     55     C	-0.1713693676  1.2837103189 -2.7584071884	  C3      1    UNL1	-475.194435
     56     C	-1.2822834944  1.2837103189 -2.7584071884	  C3      1    UNL1	-456.215844
     57     C	-1.8377405579  0.3216304636 -2.7584071884	  C3      1    UNL1	-453.873495
     58     C	-1.2822834944 -0.6404493917 -2.7584071884	  C3      1    UNL1	-473.224266
     59     C	-0.1713693676 -0.6404493917 -2.7584071884	  C3      1    UNL1	-496.630675
     60     C	-0.7268264310  0.3216304636 -3.1193650691	  C3      1    UNL1	-463.430821
     61     C	-0.8328264311 -0.1583695366  2.9116349320	  C3      1    UNL1	-471.048881
     62     C	 0.2780876958 -0.1583695366  2.5506770514	  C3      1    UNL1	-514.192006
     63     C	-0.2773693677  0.8037103186  2.5506770514	  C3      1    UNL1	-511.178166
     64     C	-1.3882834945  0.8037103186  2.5506770514	  C3      1    UNL1	-473.056916
     65     C	-1.9437405579 -0.1583695366  2.5506770514	  C3      1    UNL1	-453.007339
     66     C	-1.3882834945 -1.1204493919  2.5506770514	  C3      1    UNL1	-462.324496
     67     C	-0.2773693677 -1.1204493919  2.5506770514	  C3      1    UNL1	-490.802626
     68     C	-1.3882834945  1.5511515231  1.6056770514	  C3      1    UNL1	-501.493593
     69     C	-2.2870319024  0.8981725827  1.6056770514	  C3      1    UNL1	-474.958297
     70     C	-2.6303232469 -0.1583695366  1.6056770514	  C3      1    UNL1	-463.242933
     71     C	-2.2870319024 -1.2149116560  1.6056770514	  C3      1    UNL1	-466.545524
     72     C	-1.3882834945 -1.8678905963  1.6056770514	  C3      1    UNL1	-488.625669
     73     C	-0.2773693677 -1.8678905963  1.6056770514	  C3      1    UNL1	-532.298916
     74     C	-1.3882834945  1.5511515231  0.4375928126	  C3      1    UNL1	-526.273108
     75     C	-2.2870319024  0.8981725827  0.4375928126	  C3      1    UNL1	-512.488290
     76     C	-2.6303232469 -0.1583695366  0.4375928126	  C3      1    UNL1	-499.994027
     77     C	-2.2870319024 -1.2149116560  0.4375928126	  C3      1    UNL1	-498.721419
     78     C	-1.3882834945 -1.8678905963  0.4375928126	  C3      1    UNL1	-524.616442
     79     C	-1.7028325593 -1.4852420864 -0.5396136353	  C3      1    UNL1	-509.710732
     80     C	 1.7341735696 -1.2013695371  1.6692498036	  C3      1    UNL1	-485.069609
     81     C	 0.1141735696 -2.1366769732  1.6692498036	  C3      1    UNL1	-492.735287
     82     C	 1.1941735696 -2.1366769732  1.6692498036	  C3      1    UNL1	-461.383518
     83     C	 2.5247884418 -1.2013695371  0.8786349314	  C3      1    UNL1	-467.932507
     84     C	-0.5708186585 -2.6150859305  0.8786349314	  C3      1    UNL1	-477.804482
     85     C	 0.3879573166 -3.0529442471  0.8786349314	  C3      1    UNL1	-442.860032
     86     C	 1.4312550711 -2.9029406758  0.8786349314	  C3      1    UNL1	-430.759798
     87     C	 2.2278349394 -2.2127002908  0.8786349314	  C3      1    UNL1	-438.138048
     88     C	 2.8141735696 -1.2013695371 -0.2013650686	  C3      1    UNL1	-454.826997
     89     C	-0.9626096464 -2.6337144789 -0.2013650686	  C3      1    UNL1	-469.020654
     90     C	-0.1117729864 -3.2210046213 -0.2013650686	  C3      1    UNL1	-438.504224
     91     C	 0.9145327990 -3.3456207052 -0.2013650686	  C3      1    UNL1	-421.454856
     92     C	 1.8811934226 -2.9790146874 -0.2013650686	  C3      1    UNL1	-417.843531
     93     C	 2.5667585850 -2.2051715887 -0.2013650686	  C3      1    UNL1	-428.545587
     94     C	 2.5247884418 -1.2013695371 -1.2813650686	  C3      1    UNL1	-449.021439
     95     C	 2.2278349394 -0.1900387835 -1.2813650686	  C3      1    UNL1	-487.039488
     96     C	-0.5708186585 -2.6150859305 -1.2813650686	  C3      1    UNL1	-459.263934
     97     C	 0.3879573166 -3.0529442471 -1.2813650686	  C3      1    UNL1	-432.124431
     98     C	 1.4312550711 -2.9029406758 -1.2813650686	  C3      1    UNL1	-421.529315
     99     C	 2.2278349394 -2.2127002908 -1.2813650686	  C3      1    UNL1	-427.479038
    100     C	 1.7341735696 -1.2013695371 -2.0719799408	  C3      1    UNL1	-457.233491
    101     C	 1.1941735696 -0.2660621010 -2.0719799408	  C3      1    UNL1	-504.291765
    102     C	 0.1141735696 -2.1366769732 -2.0719799408	  C3      1    UNL1	-464.778912
    103     C	 1.1941735696 -2.1366769732 -2.0719799408	  C3      1    UNL1	-442.510900
    104     C	 0.6541735696 -1.2013695371 -2.3613650686	  C3      1    UNL1	-489.493322
    105     C	 0.9111735698  1.0296304639  2.5826349317	  C3      1    UNL1	-473.761115
    106     C	 1.9911735698  1.0296304639  2.2932498039	  C3      1    UNL1	-446.746118
    107     C	 1.4511735698  1.9649379000  2.2932498039	  C3      1    UNL1	-437.133524
    108     C	 0.3711735698  1.9649379000  2.2932498039	  C3      1    UNL1	-463.292646
    109     C	 1.4511735698  0.0943230278  2.2932498039	  C3      1    UNL1	-485.920605
    110     C	 2.7817884419  1.0296304639  1.5026349317	  C3      1    UNL1	-438.153064
    111     C	 2.4848349395  2.0409612176  1.5026349317	  C3      1    UNL1	-421.929108
    112     C	 1.6882550712  2.7312016027  1.5026349317	  C3      1    UNL1	-421.951079
    113     C	 0.6449573168  2.8812051739  1.5026349317	  C3      1    UNL1	-437.346650
    114     C	-0.3138186584  2.4433468574  1.5026349317	  C3      1    UNL1	-468.912873
    115     C	 2.4848349395  0.0182997103  1.5026349317	  C3      1    UNL1	-471.933086
    116     C	 3.0711735698  1.0296304639  0.4226349317	  C3      1    UNL1	-442.086486
    117     C	 2.8237585852  2.0334325155  0.4226349317	  C3      1    UNL1	-424.493143
    118     C	 2.1381934227  2.8072756143  0.4226349317	  C3      1    UNL1	-420.852063
    119     C	 1.1715327991  3.1738816320  0.4226349317	  C3      1    UNL1	-429.898571
    120     C	 0.1452270137  3.0492655481  0.4226349317	  C3      1    UNL1	-450.100210
    121     C	-0.7056096463  2.4619754057  0.4226349317	  C3      1    UNL1	-482.417910
    122     C	 2.8237585852  0.0258284123  0.4226349317	  C3      1    UNL1	-479.577149
    123     C	 2.7817884419  1.0296304639 -0.6573650683	  C3      1    UNL1	-454.772071
    124     C	 2.4848349395  2.0409612176 -0.6573650683	  C3      1    UNL1	-437.762887
    125     C	 1.6882550712  2.7312016027 -0.6573650683	  C3      1    UNL1	-438.840879
    126     C	 0.6449573168  2.8812051739 -0.6573650683	  C3      1    UNL1	-457.183559
    127     C	-0.3138186584  2.4433468574 -0.6573650683	  C3      1    UNL1	-499.395372
    128     C	 2.4848349395  0.0182997103 -0.6573650683	  C3      1    UNL1	-501.544481
    129     C	 1.9911735698  1.0296304639 -1.4479799405	  C3      1    UNL1	-475.868804
    130     C	 1.4511735698  1.9649379000 -1.4479799405	  C3      1    UNL1	-469.326321
    131     C	-0.9930426840  2.1732051736 -0.1493650691	  C3      1    UNL1	-499.135645
    132     C	-1.9518186591  1.7353468570 -0.1493650691	  C3      1    UNL1	-479.744588
    133     C	-2.5216682572  0.8486435744 -0.1493650691	  C3      1    UNL1	-487.879263
    134     C	-0.4664672017  2.4658816317 -1.2293650691	  C3      1    UNL1	-473.904781
    135     C	-1.4927729870  2.3412655478 -1.2293650691	  C3      1    UNL1	-448.734690
    136     C	-2.3436096471  1.7539754054 -1.2293650691	  C3      1    UNL1	-439.332540
    137     C	-2.8240607567  0.8385522985 -1.2293650691	  C3      1    UNL1	-440.174153
    138     C	-2.8240607567 -0.1952913713 -1.2293650691	  C3      1    UNL1	-448.257235
    139     C	-2.3436096471 -1.1107144782 -1.2293650691	  C3      1    UNL1	-462.622771
    140     C	-1.4927729870 -1.6980046206 -1.2293650691	  C3      1    UNL1	-490.813943
    141     C	 1.1437884412  0.3216304636 -2.3093650691	  C3      1    UNL1	-479.544427
    142     C	 0.8468349388  1.3329612172 -2.3093650691	  C3      1    UNL1	-467.769325
    143     C	 0.0502550704  2.0232016023 -2.3093650691	  C3      1    UNL1	-450.392073
    144     C	-0.9930426840  2.1732051736 -2.3093650691	  C3      1    UNL1	-431.404418
    145     C	-1.9518186591  1.7353468570 -2.3093650691	  C3      1    UNL1	-419.690994
    146     C	-2.5216682572  0.8486435744 -2.3093650691	  C3      1    UNL1	-417.388286
    147     C	-2.5216682572 -0.2053826472 -2.3093650691	  C3      1    UNL1	-424.124355
    148     C	-1.9518186591 -1.0920859298 -2.3093650691	  C3      1    UNL1	-439.551666
    149     C	-0.9930426840 -1.5299442464 -2.3093650691	  C3      1    UNL1	-466.497124
    150     C	 0.0502550704 -1.3799406751 -2.3093650691	  C3      1    UNL1	-501.264576
    151     C	 0.8468349388 -0.6897002900 -2.3093650691	  C3      1    UNL1	-503.089628
    152     C	 0.3531735690  0.3216304636 -3.0999799412	  C3      1    UNL1	-443.573998
    153     C	-0.1868264310  1.2569378997 -3.0999799412	  C3      1    UNL1	-429.161314
    154     C	-1.2668264310  1.2569378997 -3.0999799412	  C3      1    UNL1	-414.308051
    155     C	-1.8068264310  0.3216304636 -3.0999799412	  C3      1    UNL1	-412.761059
    156     C	-1.2668264310 -0.6136769725 -3.0999799412	  C3      1    UNL1	-427.818832
    157     C	-0.1868264310 -0.6136769725 -3.0999799412	  C3      1    UNL1	-446.257261
    158     C	-0.7268264310  0.3216304636 -3.3893650691	  C3      1    UNL1	-421.390086
    159     C	-0.8328264311 -0.1583695366  3.1816349320	  C3      1    UNL1	-429.709109
    160     C	 0.2471735689 -0.1583695366  2.8922498042	  C3      1    UNL1	-464.214924
    161     C	-0.2928264311  0.7769378995  2.8922498042	  C3      1    UNL1	-459.882466
    162     C	-1.3728264311  0.7769378995  2.8922498042	  C3      1    UNL1	-429.930790
    163     C	-1.9128264311 -0.1583695366  2.8922498042	  C3      1    UNL1	-414.039201
    164     C	-1.3728264311 -1.0936769727  2.8922498042	  C3      1    UNL1	-421.125348
    165     C	-0.2928264311 -1.0936769727  2.8922498042	  C3      1    UNL1	-444.060905
    166     C	-1.0990426841  1.6932051734  2.1016349320	  C3      1    UNL1	-463.433313
    167     C	-2.0578186592  1.2553468568  2.1016349320	  C3      1    UNL1	-433.933147
    168     C	-2.6276682573  0.3686435742  2.1016349320	  C3      1    UNL1	-419.447201
    169     C	-2.6276682573 -0.6853826474  2.1016349320	  C3      1    UNL1	-415.806971
    170     C	-2.0578186592 -1.5720859301  2.1016349320	  C3      1    UNL1	-424.031897
    171     C	-1.0990426841 -2.0099442466  2.1016349320	  C3      1    UNL1	-445.245896
    172     C	-0.0557449296 -1.8599406753  2.1016349320	  C3      1    UNL1	-476.993438
    173     C	 0.7408349387 -1.1697002903  2.1016349320	  C3      1    UNL1	-502.470810
    174     C	-1.5987729871  1.8612655476  1.0216349320	  C3      1    UNL1	-473.396830
    175     C	-2.4496096471  1.2739754052  1.0216349320	  C3      1    UNL1	-451.400623
    176     C	-2.9300607567  0.3585522982  1.0216349320	  C3      1    UNL1	-439.591224
    177     C	-2.9300607567 -0.6752913715  1.0216349320	  C3      1    UNL1	-435.194810
    178     C	-2.4496096471 -1.5907144784  1.0216349320	  C3      1    UNL1	-440.738854
    179     C	-1.5987729871 -2.1780046208  1.0216349320	  C3      1    UNL1	-461.737100
    180     C	-2.6276682573  0.3686435742 -0.0583650680	  C3      1    UNL1	-491.816277
    181     C	-2.6276682573 -0.6853826474 -0.0583650680	  C3      1    UNL1	-478.173165
    182     C	-2.0578186592 -1.5720859301 -0.0583650680	  C3      1    UNL1	-481.902369
    183     C	 1.7085110557 -1.2013695371  1.9879892804	  C3      1    UNL1	-454.273897
    184     C	 1.1813423127 -2.1144525842  1.9879892804	  C3      1    UNL1	-432.068636
    185     C	 2.5540240720 -1.2013695371  1.3137151499	  C3      1    UNL1	-436.968315
    186     C	-0.5899639248 -2.6371807456  1.3137151499	  C3      1    UNL1	-450.058966
    187     C	 0.3837966526 -3.0818823008  1.3137151499	  C3      1    UNL1	-414.049548
    188     C	 1.4433999908 -2.9295343405  1.3137151499	  C3      1    UNL1	-402.284539
    189     C	 2.2524295166 -2.2285062658  1.3137151499	  C3      1    UNL1	-408.803781
    190     C	 3.0232483962 -1.2013695371  0.3393608009	  C3      1    UNL1	-424.197868
    191     C	-0.8229204246 -3.0535868209  0.3393608009	  C3      1    UNL1	-426.342101
    192     C	 0.1270048266 -3.5110467116  0.3393608009	  C3      1    UNL1	-400.943707
    193     C	 1.1813423127 -3.5110467116  0.3393608009	  C3      1    UNL1	-388.598925
    194     C	 2.1312675639 -3.0535868209  0.3393608009	  C3      1    UNL1	-387.627971
    195     C	 2.7886362341 -2.2292725811  0.3393608009	  C3      1    UNL1	-398.438526
    196     C	 3.0232483962 -1.2013695371 -0.7420909381	  C3      1    UNL1	-415.558479
    197     C	 2.7886362341 -0.1734664931 -0.7420909381	  C3      1    UNL1	-457.675186
    198     C	-1.4802890949 -2.2292725811 -0.7420909381	  C3      1    UNL1	-457.969595
    199     C	-0.8229204246 -3.0535868209 -0.7420909381	  C3      1    UNL1	-418.979626
    200     C	 0.1270048266 -3.5110467116 -0.7420909381	  C3      1    UNL1	-396.352431
    201     C	 1.1813423127 -3.5110467116 -0.7420909381	  C3      1    UNL1	-384.831912
    202     C	 2.1312675639 -3.0535868209 -0.7420909381	  C3      1    UNL1	-383.817113
    203     C	 2.7886362341 -2.2292725811 -0.7420909381	  C3      1    UNL1	-393.586108
    204     C	 2.5540240720 -1.2013695371 -1.7164452871	  C3      1    UNL1	-414.295247
    205     C	 2.2524295166 -0.1742328085 -1.7164452871	  C3      1    UNL1	-448.784562
    206     C	-0.5899639248 -2.6371807456 -1.7164452871	  C3      1    UNL1	-426.940681
    207     C	 0.3837966526 -3.0818823008 -1.7164452871	  C3      1    UNL1	-400.659337
    208     C	 1.4433999908 -2.9295343405 -1.7164452871	  C3      1    UNL1	-390.976443
    209     C	 2.2524295166 -2.2285062658 -1.7164452871	  C3      1    UNL1	-395.647420
    210     C	 1.7085110557 -1.2013695371 -2.3907194176	  C3      1    UNL1	-425.026356
    211     C	 0.1270048266 -2.1144525842 -2.3907194176	  C3      1    UNL1	-432.380025
    212     C	 1.1813423127 -2.1144525842 -2.3907194176	  C3      1    UNL1	-411.461546
    213     C	 0.6541735696 -1.2013695371 -2.6313650686	  C3      1    UNL1	-454.749860
    214     C	 0.9111735698  1.0296304639  2.8526349317	  C3      1    UNL1	-437.189755
    215     C	 1.9655110558  1.0296304639  2.6119892807	  C3      1    UNL1	-413.089869
    216     C	 1.4383423128  1.9427135110  2.6119892807	  C3      1    UNL1	-404.922534
    217     C	 0.3840048267  1.9427135110  2.6119892807	  C3      1    UNL1	-428.039897
    218     C	 1.4383423128  0.1165474168  2.6119892807	  C3      1    UNL1	-448.283132
    219     C	 2.8110240722  1.0296304639  1.9377151502	  C3      1    UNL1	-403.317545
    220     C	 2.5094295167  2.0567671926  1.9377151502	  C3      1    UNL1	-389.585624
    221     C	 1.7003999909  2.7577952673  1.9377151502	  C3      1    UNL1	-389.698170
    222     C	 0.6407966528  2.9101432276  1.9377151502	  C3      1    UNL1	-403.400381
    223     C	-0.3329639246  2.4654416725  1.9377151502	  C3      1    UNL1	-433.768701
    224     C	 1.7003999909 -0.6985343394  1.9377151502	  C3      1    UNL1	-480.171999
    225     C	 2.5094295167  0.0024937353  1.9377151502	  C3      1    UNL1	-432.455569
    226     C	 3.2802483964  1.0296304639  0.9633608012	  C3      1    UNL1	-403.218576
    227     C	 3.0456362343  2.0575335080  0.9633608012	  C3      1    UNL1	-387.981566
    228     C	 2.3882675640  2.8818477477  0.9633608012	  C3      1    UNL1	-383.713195
    229     C	 1.4383423128  3.3393076384  0.9633608012	  C3      1    UNL1	-389.380459
    230     C	 0.3840048267  3.3393076384  0.9633608012	  C3      1    UNL1	-404.515569
    231     C	-0.5659204245  2.8818477477  0.9633608012	  C3      1    UNL1	-430.893505
    232     C	 3.0456362343  0.0017274199  0.9633608012	  C3      1    UNL1	-433.582684
    233     C	 3.2802483964  1.0296304639 -0.1180909378	  C3      1    UNL1	-410.559969
    234     C	 3.0456362343  2.0575335080 -0.1180909378	  C3      1    UNL1	-394.425414
    235     C	 2.3882675640  2.8818477477 -0.1180909378	  C3      1    UNL1	-390.270741
    236     C	 1.4383423128  3.3393076384 -0.1180909378	  C3      1    UNL1	-396.525651
    237     C	 0.3840048267  3.3393076384 -0.1180909378	  C3      1    UNL1	-413.203055
    238     C	-0.5659204245  2.8818477477 -0.1180909378	  C3      1    UNL1	-443.340772
    239     C	 3.0456362343  0.0017274199 -0.1180909378	  C3      1    UNL1	-446.180245
    240     C	 2.8110240722  1.0296304639 -1.0924452868	  C3      1    UNL1	-424.337591
    241     C	 2.5094295167  2.0567671926 -1.0924452868	  C3      1    UNL1	-408.482890
    242     C	 1.7003999909  2.7577952673 -1.0924452868	  C3      1    UNL1	-410.263445
    243     C	 0.6407966528  2.9101432276 -1.0924452868	  C3      1    UNL1	-430.104969
    244     C	 1.9655110558  1.0296304639 -1.7667194173	  C3      1    UNL1	-448.305117
    245     C	 1.4383423128  1.9427135110 -1.7667194173	  C3      1    UNL1	-441.853202
    246     C	-1.2539951740  2.6313076381 -0.6886391996	  C3      1    UNL1	-435.979370
    247     C	-2.2039204252  2.1738477474 -0.6886391996	  C3      1    UNL1	-420.741854
    248     C	-2.8612890955  1.3495335076 -0.6886391996	  C3      1    UNL1	-419.168933
    249     C	-3.0959012576  0.3216304636 -0.6886391996	  C3      1    UNL1	-425.926077
    250     C	-2.8612890955 -0.7062725804 -0.6886391996	  C3      1    UNL1	-438.564629
    251     C	-2.2039204252 -1.5305868202 -0.6886391996	  C3      1    UNL1	-458.001981
    252     C	 0.7502675632  2.1738477474 -1.7700909386	  C3      1    UNL1	-456.907428
    253     C	-0.1996576880  2.6313076381 -1.7700909386	  C3      1    UNL1	-427.965077
    254     C	-1.2539951740  2.6313076381 -1.7700909386	  C3      1    UNL1	-406.915127
    255     C	-2.2039204252  2.1738477474 -1.7700909386	  C3      1    UNL1	-395.810095
    256     C	-2.8612890955  1.3495335076 -1.7700909386	  C3      1    UNL1	-392.751365
    257     C	-3.0959012576  0.3216304636 -1.7700909386	  C3      1    UNL1	-396.121752
    258     C	-2.8612890955 -0.7062725804 -1.7700909386	  C3      1    UNL1	-405.109253
    259     C	-2.2039204252 -1.5305868202 -1.7700909386	  C3      1    UNL1	-421.032718
    260     C	-1.2539951740 -1.9880467109 -1.7700909386	  C3      1    UNL1	-451.117100
    261     C	 1.1730240714  0.3216304636 -2.7444452876	  C3      1    UNL1	-434.508838
    262     C	 0.8714295160  1.3487671923 -2.7444452876	  C3      1    UNL1	-422.179938
    263     C	 0.0623999901  2.0497952670 -2.7444452876	  C3      1    UNL1	-407.005734
    264     C	-0.9972033480  2.2021432272 -2.7444452876	  C3      1    UNL1	-391.720841
    265     C	-1.9709639254  1.7574416721 -2.7444452876	  C3      1    UNL1	-382.137746
    266     C	-2.5497196390  0.8568802033 -2.7444452876	  C3      1    UNL1	-380.189656
    267     C	-2.5497196390 -0.2136192761 -2.7444452876	  C3      1    UNL1	-385.850693
    268     C	-1.9709639254 -1.1141807449 -2.7444452876	  C3      1    UNL1	-399.013017
    269     C	-0.9972033480 -1.5588823000 -2.7444452876	  C3      1    UNL1	-420.469554
    270     C	 0.0623999901 -1.4065343398 -2.7444452876	  C3      1    UNL1	-444.498857
    271     C	 0.8714295160 -0.7055062651 -2.7444452876	  C3      1    UNL1	-448.344819
    272     C	 0.3275110550  0.3216304636 -3.4187194181	  C3      1    UNL1	-404.685430
    273     C	-0.1996576880  1.2347135107 -3.4187194181	  C3      1    UNL1	-392.456050
    274     C	-1.2539951740  1.2347135107 -3.4187194181	  C3      1    UNL1	-380.455301
    275     C	-1.7811639171  0.3216304636 -3.4187194181	  C3      1    UNL1	-379.354534
    276     C	-1.2539951740 -0.5914525835 -3.4187194181	  C3      1    UNL1	-391.442928
    277     C	-0.1996576880 -0.5914525835 -3.4187194181	  C3      1    UNL1	-406.171448
    278     C	-0.7268264310  0.3216304636 -3.6593650691	  C3      1    UNL1	-387.002253
    279     C	-0.8328264311 -0.1583695366  3.4516349320	  C3      1    UNL1	-395.550818
    280     C	 0.2215110550 -0.1583695366  3.2109892810	  C3      1    UNL1	-423.075640
    281     C	-0.3056576880  0.7547135105  3.2109892810	  C3      1    UNL1	-418.713496
    282     C	-1.3599951741  0.7547135105  3.2109892810	  C3      1    UNL1	-394.928031
    283     C	-1.8871639171 -0.1583695366  3.2109892810	  C3      1    UNL1	-381.980602
    284     C	-1.3599951741 -1.0714525837  3.2109892810	  C3      1    UNL1	-387.608183
    285     C	-0.3056576880 -1.0714525837  3.2109892810	  C3      1    UNL1	-406.387142
    286     C	 1.0670240713 -0.1583695366  2.5367151505	  C3      1    UNL1	-472.455078
    287     C	-1.1032033481  1.7221432270  2.5367151505	  C3      1    UNL1	-420.944652
    288     C	-2.0769639255  1.2774416719  2.5367151505	  C3      1    UNL1	-396.006488
    289     C	-2.6557196390  0.3768802030  2.5367151505	  C3      1    UNL1	-383.325105
    290     C	-2.6557196390 -0.6936192763  2.5367151505	  C3      1    UNL1	-380.257062
    291     C	-2.0769639255 -1.5941807451  2.5367151505	  C3      1    UNL1	-387.079189
    292     C	-1.1032033481 -2.0388823003  2.5367151505	  C3      1    UNL1	-404.116235
    293     C	-0.0436000099 -1.8865343400  2.5367151505	  C3      1    UNL1	-428.600587
    294     C	 0.7654295159 -1.1855062653  2.5367151505	  C3      1    UNL1	-450.889344
    295     C	-1.3599951741  2.1513076379  1.5623608015	  C3      1    UNL1	-438.668792
    296     C	-2.3099204253  1.6938477471  1.5623608015	  C3      1    UNL1	-411.775038
    297     C	-2.9672890956  0.8695335074  1.5623608015	  C3      1    UNL1	-397.988921
    298     C	-3.2019012577 -0.1583695366  1.5623608015	  C3      1    UNL1	-391.389286
    299     C	-2.9672890956 -1.1862725806  1.5623608015	  C3      1    UNL1	-391.812861
    300     C	-2.3099204253 -2.0105868204  1.5623608015	  C3      1    UNL1	-400.950373
    301     C	-1.3599951741 -2.4680467111  1.5623608015	  C3      1    UNL1	-422.184843
    302     C	-2.3099204253  1.6938477471  0.4809090625	  C3      1    UNL1	-442.159292
    303     C	-2.9672890956  0.8695335074  0.4809090625	  C3      1    UNL1	-426.502227
    304     C	-3.2019012577 -0.1583695366  0.4809090625	  C3      1    UNL1	-417.289931
    305     C	-2.9672890956 -1.1862725806  0.4809090625	  C3      1    UNL1	-415.672251
    306     C	-2.3099204253 -2.0105868204  0.4809090625	  C3      1    UNL1	-425.427004
    307     C	-1.3599951741 -2.4680467111  0.4809090625	  C3      1    UNL1	-456.578439
    308     C	-2.0769639255 -1.5941807451 -0.4934452865	  C3      1    UNL1	-468.751981
    309     C	 1.6874188370 -1.2013695371  2.2931096692	  C3      1    UNL1	-426.998917
    310     C	 1.1707962033 -2.0961861870  2.2931096692	  C3      1    UNL1	-406.708284
    311     C	 2.5633618788 -1.2013695371  1.7078232406	  C3      1    UNL1	-410.173482
    312     C	 0.3824677442 -3.0911250622  1.7078232406	  C3      1    UNL1	-389.646919
    313     C	 1.4472790559 -2.9380283083  1.7078232406	  C3      1    UNL1	-378.295930
    314     C	 2.2602849796 -2.2335546653  1.7078232406	  C3      1    UNL1	-384.161545
    315     C	 3.1486483074 -1.2013695371  0.8318801988	  C3      1    UNL1	-398.126308
    316     C	-0.9011059904 -3.1516284193  0.8318801988	  C3      1    UNL1	-401.804897
    317     C	 0.0991007213 -3.6333025852  0.8318801988	  C3      1    UNL1	-375.820588
    318     C	 1.2092464180 -3.6333025852  0.8318801988	  C3      1    UNL1	-363.856423
    319     C	 2.2094531296 -3.1516284193  0.8318801988	  C3      1    UNL1	-362.851852
    320     C	 2.9016176501 -2.2836815635  0.8318801988	  C3      1    UNL1	-373.005194
    321     C	 3.3541735696 -1.2013695371 -0.2013650686	  C3      1    UNL1	-388.990802
    322     C	-1.2550147396 -3.1105578463 -0.2013650686	  C3      1    UNL1	-399.194573
    323     C	-0.3790716978 -3.6958442749 -0.2013650686	  C3      1    UNL1	-374.879198
    324     C	 0.6541735696 -3.9013695371 -0.2013650686	  C3      1    UNL1	-360.876373
    325     C	 1.6874188370 -3.6958442749 -0.2013650686	  C3      1    UNL1	-355.061580
    326     C	 2.5633618788 -3.1105578463 -0.2013650686	  C3      1    UNL1	-357.135229
    327     C	 3.1486483074 -2.2346148045 -0.2013650686	  C3      1    UNL1	-367.625799
    328     C	 3.1486483074 -1.2013695371 -1.2346103360	  C3      1    UNL1	-384.128540
    329     C	 2.9016176501 -0.1190575108 -1.2346103360	  C3      1    UNL1	-419.447168
    330     C	-1.5932705109 -2.2836815635 -1.2346103360	  C3      1    UNL1	-428.708470
    331     C	-0.9011059904 -3.1516284193 -1.2346103360	  C3      1    UNL1	-389.607637
    332     C	 0.0991007213 -3.6333025852 -1.2346103360	  C3      1    UNL1	-368.169614
    333     C	 1.2092464180 -3.6333025852 -1.2346103360	  C3      1    UNL1	-357.637918
    334     C	 2.2094531296 -3.1516284193 -1.2346103360	  C3      1    UNL1	-356.559875
    335     C	 2.9016176501 -2.2836815635 -1.2346103360	  C3      1    UNL1	-364.950309
    336     C	 2.5633618788 -1.2013695371 -2.1105533778	  C3      1    UNL1	-385.890427
    337     C	 2.2602849796 -0.1691844090 -2.1105533778	  C3      1    UNL1	-417.248831
    338     C	-0.5960788878 -2.6442377892 -2.1105533778	  C3      1    UNL1	-399.412579
    339     C	 0.3824677442 -3.0911250622 -2.1105533778	  C3      1    UNL1	-374.526328
    340     C	 1.4472790559 -2.9380283083 -2.1105533778	  C3      1    UNL1	-365.500916
    341     C	 2.2602849796 -2.2335546653 -2.1105533778	  C3      1    UNL1	-369.349252
    342     C	 1.6874188370 -1.2013695371 -2.6958398064	  C3      1    UNL1	-397.565130
    343     C	 0.1375509359 -2.0961861870 -2.6958398064	  C3      1    UNL1	-404.191844
    344     C	 1.1707962033 -2.0961861870 -2.6958398064	  C3      1    UNL1	-385.102824
    345     C	 0.9111735698  1.0296304639  3.1226349317	  C3      1    UNL1	-405.768153
    346     C	 1.9444188371  1.0296304639  2.9171096695	  C3      1    UNL1	-384.681828
    347     C	 1.4277962034  1.9244471138  2.9171096695	  C3      1    UNL1	-377.600553
    348     C	 0.3945509361  1.9244471138  2.9171096695	  C3      1    UNL1	-397.834541
    349     C	 1.4277962034  0.1348138140  2.9171096695	  C3      1    UNL1	-415.568513
    350     C	 2.8203618790  1.0296304639  2.3318232409	  C3      1    UNL1	-374.700534
    351     C	 2.5172849797  2.0618155921  2.3318232409	  C3      1    UNL1	-362.851317
    352     C	 1.7042790560  2.7662892351  2.3318232409	  C3      1    UNL1	-363.046254
    353     C	 0.6394677443  2.9193859890  2.3318232409	  C3      1    UNL1	-375.367285
    354     C	-0.3390788876  2.4724987160  2.3318232409	  C3      1    UNL1	-403.196718
    355     C	 1.7042790560 -0.7070283073  2.3318232409	  C3      1    UNL1	-440.415545
    356     C	 2.5172849797 -0.0025546642  2.3318232409	  C3      1    UNL1	-399.916196
    357     C	 3.4056483075  1.0296304639  1.4558801991	  C3      1    UNL1	-372.333038
    358     C	 3.1586176503  2.1119424903  1.4558801991	  C3      1    UNL1	-358.881295
    359     C	 2.4664531298  2.9798893462  1.4558801991	  C3      1    UNL1	-355.122076
    360     C	 1.4662464181  3.4615635120  1.4558801991	  C3      1    UNL1	-360.170614
    361     C	 0.3561007214  3.4615635120  1.4558801991	  C3      1    UNL1	-374.103928
    362     C	-0.6441059902  2.9798893462  1.4558801991	  C3      1    UNL1	-399.605228
    363     C	 3.1586176503 -0.0526815624  1.4558801991	  C3      1    UNL1	-398.666253
    364     C	 3.6111735698  1.0296304639  0.4226349317	  C3      1    UNL1	-375.937485
    365     C	 3.4056483075  2.0628757313  0.4226349317	  C3      1    UNL1	-361.929879
    366     C	 2.8203618790  2.9388187731  0.4226349317	  C3      1    UNL1	-356.711196
    367     C	 1.9444188371  3.5241052017  0.4226349317	  C3      1    UNL1	-358.998530
    368     C	 0.9111735698  3.7296304639  0.4226349317	  C3      1    UNL1	-368.528132
    369     C	-0.1220716976  3.5241052017  0.4226349317	  C3      1    UNL1	-386.106796
    370     C	-0.9980147394  2.9388187731  0.4226349317	  C3      1    UNL1	-415.241548
    371     C	 3.4056483075 -0.0036148035  0.4226349317	  C3      1    UNL1	-403.229245
    372     C	 3.4056483075  1.0296304639 -0.6106103357	  C3      1    UNL1	-384.720144
    373     C	 3.1586176503  2.1119424903 -0.6106103357	  C3      1    UNL1	-369.402930
    374     C	 2.4664531298  2.9798893462 -0.6106103357	  C3      1    UNL1	-365.758589
    375     C	 1.4662464181  3.4615635120 -0.6106103357	  C3      1    UNL1	-372.136162
    376     C	 0.3561007214  3.4615635120 -0.6106103357	  C3      1    UNL1	-389.554745
    377     C	-0.6441059902  2.9798893462 -0.6106103357	  C3      1    UNL1	-423.758636
    378     C	 3.1586176503 -0.0526815624 -0.6106103357	  C3      1    UNL1	-419.628127
    379     C	 2.8203618790  1.0296304639 -1.4865533775	  C3      1    UNL1	-399.232160
    380     C	 2.5172849797  2.0618155921 -1.4865533775	  C3      1    UNL1	-384.396603
    381     C	 1.7042790560  2.7662892351 -1.4865533775	  C3      1    UNL1	-386.703077
    382     C	 0.6394677443  2.9193859890 -1.4865533775	  C3      1    UNL1	-407.432649
    383     C	 1.9444188371  1.0296304639 -2.0718398061	  C3      1    UNL1	-424.570223
    384     C	 1.4277962034  1.9244471138 -2.0718398061	  C3      1    UNL1	-418.281201
    385     C	-1.2818992794  2.7535635117 -0.1961198017	  C3      1    UNL1	-423.215674
    386     C	-2.2821059910  2.2718893458 -0.1961198017	  C3      1    UNL1	-405.898960
    387     C	-2.9742705115  1.4039424900 -0.1961198017	  C3      1    UNL1	-405.195568
    388     C	-3.2213011688  0.3216304636 -0.1961198017	  C3      1    UNL1	-414.216906
    389     C	-0.7268264310  3.0216304636 -1.2293650691	  C3      1    UNL1	-402.614919
    390     C	-1.7600716984  2.8161052014 -1.2293650691	  C3      1    UNL1	-383.977510
    391     C	-2.6360147402  2.2308187728 -1.2293650691	  C3      1    UNL1	-375.753499
    392     C	-3.2213011688  1.3548757310 -1.2293650691	  C3      1    UNL1	-374.655502
    393     C	-3.4268264310  0.3216304636 -1.2293650691	  C3      1    UNL1	-378.842122
    394     C	-3.2213011688 -0.7116148038 -1.2293650691	  C3      1    UNL1	-387.515241
    395     C	-2.6360147402 -1.5875578456 -1.2293650691	  C3      1    UNL1	-401.578529
    396     C	-1.7600716984 -2.1728442742 -1.2293650691	  C3      1    UNL1	-426.736301
    397     C	 1.5206176495  1.4039424900 -2.2626103365	  C3      1    UNL1	-423.894531
    398     C	 0.8284531290  2.2718893458 -2.2626103365	  C3      1    UNL1	-407.087050
    399     C	-0.1717535826  2.7535635117 -2.2626103365	  C3      1    UNL1	-386.400450
    400     C	-1.2818992794  2.7535635117 -2.2626103365	  C3      1    UNL1	-370.142177
    401     C	-2.2821059910  2.2718893458 -2.2626103365	  C3      1    UNL1	-360.821890
    402     C	-2.9742705115  1.4039424900 -2.2626103365	  C3      1    UNL1	-357.924862
    403     C	-3.2213011688  0.3216304636 -2.2626103365	  C3      1    UNL1	-360.587845
    404     C	-2.9742705115 -0.7606815628 -2.2626103365	  C3      1    UNL1	-368.411636
    405     C	-2.2821059910 -1.6286284186 -2.2626103365	  C3      1    UNL1	-382.403004
    406     C	-1.2818992794 -2.1103025845 -2.2626103365	  C3      1    UNL1	-406.305265
    407     C	 1.1823618782  0.3216304636 -3.1385533783	  C3      1    UNL1	-396.455408
    408     C	 0.8792849789  1.3538155918 -3.1385533783	  C3      1    UNL1	-385.511555
    409     C	 0.0662790553  2.0582892348 -3.1385533783	  C3      1    UNL1	-372.548682
    410     C	-0.9985322565  2.2113859886 -3.1385533783	  C3      1    UNL1	-360.040488
    411     C	-1.9770788884  1.7644987156 -3.1385533783	  C3      1    UNL1	-352.142989
    412     C	-2.5586791990  0.8595109674 -3.1385533783	  C3      1    UNL1	-350.524677
    413     C	-2.5586791990 -0.2162500402 -3.1385533783	  C3      1    UNL1	-355.315618
    414     C	-1.9770788884 -1.1212377884 -3.1385533783	  C3      1    UNL1	-366.419246
    415     C	-0.9985322565 -1.5681250614 -3.1385533783	  C3      1    UNL1	-383.581922
    416     C	 0.0662790553 -1.4150283076 -3.1385533783	  C3      1    UNL1	-401.274163
    417     C	 0.8792849789 -0.7105546646 -3.1385533783	  C3      1    UNL1	-405.373566
    418     C	 0.3064188364  0.3216304636 -3.7238398069	  C3      1    UNL1	-372.627953
    419     C	-0.2102037973  1.2164471135 -3.7238398069	  C3      1    UNL1	-362.305655
    420     C	-1.2434490647  1.2164471135 -3.7238398069	  C3      1    UNL1	-352.363339
    421     C	-1.7600716984  0.3216304636 -3.7238398069	  C3      1    UNL1	-351.528387
    422     C	-1.2434490647 -0.5731861863 -3.7238398069	  C3      1    UNL1	-361.467947
    423     C	-0.2102037973 -0.5731861863 -3.7238398069	  C3      1    UNL1	-373.454936
    424     C	-0.7268264310  0.3216304636 -3.9293650691	  C3      1    UNL1	-358.294989
    425     C	-0.8328264311 -0.1583695366  3.7216349320	  C3      1    UNL1	-366.785160
    426     C	 0.2004188363 -0.1583695366  3.5161096698	  C3      1    UNL1	-388.965389
    427     C	-0.3162037974  0.7364471133  3.5161096698	  C3      1    UNL1	-384.951116
    428     C	-1.3494490648  0.7364471133  3.5161096698	  C3      1    UNL1	-365.760782
    429     C	-1.8660716985 -0.1583695366  3.5161096698	  C3      1    UNL1	-355.009067
    430     C	-1.3494490648 -1.0531861865  3.5161096698	  C3      1    UNL1	-359.612059
    431     C	-0.3162037974 -1.0531861865  3.5161096698	  C3      1    UNL1	-375.222028
    432     C	 1.0763618781 -0.1583695366  2.9308232412	  C3      1    UNL1	-426.678791
    433     C	-0.0397209448  1.5782892346  2.9308232412	  C3      1    UNL1	-415.772854
    434     C	-1.1045322565  1.7313859884  2.9308232412	  C3      1    UNL1	-385.956496
    435     C	-2.0830788885  1.2844987154  2.9308232412	  C3      1    UNL1	-365.288272
    436     C	-2.6646791991  0.3795109672  2.9308232412	  C3      1    UNL1	-354.354446
    437     C	-2.6646791991 -0.6962500405  2.9308232412	  C3      1    UNL1	-351.726503
    438     C	-2.0830788885 -1.6012377887  2.9308232412	  C3      1    UNL1	-357.402848
    439     C	-1.1045322565 -2.0481250617  2.9308232412	  C3      1    UNL1	-371.290749
    440     C	-0.0397209448 -1.8950283078  2.9308232412	  C3      1    UNL1	-390.853434
    441     C	 0.7732849789 -1.1905546648  2.9308232412	  C3      1    UNL1	-409.714066
    442     C	-1.3878992794  2.2735635115  2.0548801994	  C3      1    UNL1	-399.737699
    443     C	-2.3881059911  1.7918893456  2.0548801994	  C3      1    UNL1	-376.071761
    444     C	-3.0802705116  0.9239424897  2.0548801994	  C3      1    UNL1	-363.422789
    445     C	-3.3273011688 -0.1583695366  2.0548801994	  C3      1    UNL1	-357.613784
    446     C	-3.0802705116 -1.2406815630  2.0548801994	  C3      1    UNL1	-358.181738
    447     C	-2.3881059911 -2.1086284188  2.0548801994	  C3      1    UNL1	-366.108911
    448     C	-1.3878992794 -2.5903025847  2.0548801994	  C3      1    UNL1	-383.193379
    449     C	-0.2777535827 -2.5903025847  2.0548801994	  C3      1    UNL1	-410.814279
    450     C	-1.8660716985  2.3361052012  1.0216349320	  C3      1    UNL1	-410.307935
    451     C	-2.7420147403  1.7508187726  1.0216349320	  C3      1    UNL1	-390.452652
    452     C	-3.3273011688  0.8748757308  1.0216349320	  C3      1    UNL1	-379.043716
    453     C	-3.5328264311 -0.1583695366  1.0216349320	  C3      1    UNL1	-372.975530
    454     C	-3.3273011688 -1.1916148040  1.0216349320	  C3      1    UNL1	-372.376643
    455     C	-2.7420147403 -2.0675578458  1.0216349320	  C3      1    UNL1	-378.780400
    456     C	-1.8660716985 -2.6528442744  1.0216349320	  C3      1    UNL1	-395.528488
    457     C	-3.0802705116  0.9239424897 -0.0116103354	  C3      1    UNL1	-415.232700
    458     C	-3.3273011688 -0.1583695366 -0.0116103354	  C3      1    UNL1	-403.614797
    459     C	-3.0802705116 -1.2406815630 -0.0116103354	  C3      1    UNL1	-400.427762
    460     C	-2.3881059911 -2.1086284188 -0.0116103354	  C3      1    UNL1	-409.707694
