@<TRIPOS>MOLECULE
*****
 1050 0 0 0 0
SMALL
GASTEIGER

@<TRIPOS>ATOM
      1     C	-0.6984951136  2.0883762803  0.5299630584	  C3      1    UNL1	 -0.036829
      2     C	 0.2993021778 -1.9598464650  0.5299630584	  C3      1    UNL1	 -0.028400
      3     C	-0.2126462078  1.9249842498 -0.5200369416	  C3      1    UNL1	 -0.026769
      4     C	-0.2126462078 -1.6752999085 -0.5200369416	  C3      1    UNL1	 -0.034643
      5     C	 1.7201751498  1.2221688447  1.4746164059	  C3      1    UNL1	 -0.006991
      6     C	 0.6171751493  0.8011688445  3.6856164070	  C3      1    UNL1	 -0.014415
      7     C	 0.8476710534  1.5461474443  2.9169630590	  C3      1    UNL1	 -0.020471
      8     C	-0.1666462078  1.6919842497  2.9169630590	  C3      1    UNL1	 -0.046832
      9     C	-0.1666462078 -1.9082999086  2.9169630590	  C3      1    UNL1	 -0.034720
     10     C	 1.2851111174  1.6201082889  1.8669630590	  C3      1    UNL1	 -0.012408
     11     C	 0.3453021778  1.9765308061  1.8669630590	  C3      1    UNL1	 -0.029671
     12     C	-0.6524951135  1.8553762802  1.8669630590	  C3      1    UNL1	 -0.053279
     13     C	 0.3453021778 -2.1928464651  1.8669630590	  C3      1    UNL1	 -0.028038
     14     C	-0.1448248513 -0.1571578295  4.1316164072	  C3      1    UNL1	 -0.016359
     15     C	-0.6698248513  0.7521688445  4.1316164072	  C3      1    UNL1	 -0.033067
     16     C	-0.4393289472  1.4971474443  3.3629630592	  C3      1    UNL1	 -0.048457
     17     C	-1.4536462084  1.6429842497  3.3629630592	  C3      1    UNL1	 -0.054859
     18     C	-2.3857895176  1.2172886641  3.3629630592	  C3      1    UNL1	 -0.054889
     19     C	-0.4393289472 -1.8114631032  3.3629630592	  C3      1    UNL1	 -0.032418
     20     C	-0.9416978228  1.9275308061  2.3129630592	  C3      1    UNL1	 -0.060248
     21     C	-2.7666974225 -1.5497154118  2.3129630592	  C3      1    UNL1	 -0.072661
     22     C	-1.9394951141 -2.1206919391  2.3129630592	  C3      1    UNL1	 -0.061701
     23     C	-0.9416978228 -2.2418464651  2.3129630592	  C3      1    UNL1	 -0.053579
     24     C	-1.4536462084 -1.9572999086  1.2629630592	  C3      1    UNL1	 -0.062914
     25     C	-2.3236462088  1.9229842498  2.2649630587	  C3      1    UNL1	 -0.064585
     26     C	-1.8116978232  2.2075308063  1.2149630587	  C3      1    UNL1	 -0.057494
     27     C	-1.8116978232 -1.9618464650  1.2149630587	  C3      1    UNL1	 -0.066784
     28     C	-2.3236462088  1.9229842498  0.1649630587	  C3      1    UNL1	 -0.044417
     29     C	-1.0076978228  2.1155308062  0.1209630582	  C3      1    UNL1	 -0.035665
     30     C	-2.0054951142  1.9943762802  0.1209630582	  C3      1    UNL1	 -0.043390
     31     C	-2.0054951142 -1.9326919390  0.1209630582	  C3      1    UNL1	 -0.049884
     32     C	-1.0076978228 -2.0538464650  0.1209630582	  C3      1    UNL1	 -0.039230
     33     C	-0.5053289472  1.6851474444 -0.9290369418	  C3      1    UNL1	 -0.024175
     34     C	-1.5196462085  1.8309842498 -0.9290369418	  C3      1    UNL1	 -0.022427
     35     C	-2.4517895176 -1.3436043230 -0.9290369418	  C3      1    UNL1	 -0.029651
     36     C	-1.5196462085 -1.7692999085 -0.9290369418	  C3      1    UNL1	 -0.030449
     37     C	-3.8196462096 -1.7302999085  2.2659630587	  C3      1    UNL1	 -0.065444
     38     C	-2.8053289483 -1.5844631031  2.2659630587	  C3      1    UNL1	 -0.072653
     39     C	-5.5998026691  0.5724050656  1.2159630587	  C3      1    UNL1	 -0.036293
     40     C	-5.5998026691 -0.4327207244  1.2159630587	  C3      1    UNL1	 -0.044105
     41     C	-3.0358248525  0.9791688446 -0.6026902892	  C3      1    UNL1	 -0.027732
     42     C	-3.5608248525  0.0698421706 -0.8840369413	  C3      1    UNL1	 -0.034834
     43     C	 0.4381751497 -1.0554845035 -3.6226902907	  C3      1    UNL1	 -0.026547
     44     C	 3.7201237042  1.2700804034 -3.6260369431	  C3      1    UNL1	  0.011205
     45     C	 0.9992104840  1.6612886643 -3.6260369431	  C3      1    UNL1	 -0.030137
     46     C	 1.9313537932 -1.5132999084 -3.6260369431	  C3      1    UNL1	 -0.017819
     47     C	 4.9691237048 -1.5093960624 -1.1110369429	  C3      1    UNL1	  0.014266
     48     C	 4.6321111190  1.2021082887 -2.1610369429	  C3      1    UNL1	  0.021509
     49     C	 5.2986328047 -1.5020764909 -2.1610369429	  C3      1    UNL1	  0.029400
     50     C	 2.9141751508 -1.4354845036 -3.9796902908	  C3      1    UNL1	  0.004459
     51     C	 5.8259500986 -0.3701578296 -2.3778883927	  C3      1    UNL1	  0.036838
     52     C	 5.4521417710  0.6568721097 -2.3778883927	  C3      1    UNL1	  0.033865
     53     C	 5.4521417710 -1.3971877688 -2.3778883927	  C3      1    UNL1	  0.033002
     54     C	 5.8259500986 -0.3701578296 -3.4161854938	  C3      1    UNL1	  0.042250
     55     C	 5.4521417710  0.6568721097 -3.4161854938	  C3      1    UNL1	  0.039372
     56     C	 4.5056258591  1.2033433262 -3.4161854938	  C3      1    UNL1	  0.028797
     57     C	 4.5056258591 -1.9436589853 -3.4161854938	  C3      1    UNL1	  0.027560
     58     C	 5.4521417710 -1.3971877688 -3.4161854938	  C3      1    UNL1	  0.037996
     59     C	 5.2156543751 -0.3701578296 -4.2561854938	  C3      1    UNL1	  0.041724
     60     C	 4.5333230130  0.5689907210 -4.2561854938	  C3      1    UNL1	  0.034929
     61     C	 3.4292876775 -0.9505835543 -4.2561854938	  C3      1    UNL1	  0.022335
     62     C	 4.5333230130 -1.3093063801 -4.2561854938	  C3      1    UNL1	  0.034431
     63     C	 4.2281751512 -0.3701578296 -4.5770369432	  C3      1    UNL1	  0.033994
     64     C	 2.4692876771 -2.1795835549 -0.7138883923	  C3      1    UNL1	 -0.017093
     65     C	 3.5733230125 -2.5383063807 -0.7138883923	  C3      1    UNL1	 -0.003575
     66     C	 2.4692876771 -2.9828715241 -1.5538883923	  C3      1    UNL1	 -0.011297
     67     C	 3.5456258587 -3.1726589859 -1.5538883923	  C3      1    UNL1	 -0.001115
     68     C	 4.4921417706 -2.6261877694 -1.5538883923	  C3      1    UNL1	  0.006168
     69     C	 2.4692876771 -2.9828715241 -2.5921854934	  C3      1    UNL1	 -0.008980
     70     C	 3.5456258587 -3.1726589859 -2.5921854934	  C3      1    UNL1	  0.001273
     71     C	 4.4921417706 -2.6261877694 -2.5921854934	  C3      1    UNL1	  0.011166
     72     C	 2.4692876771 -2.1795835549 -3.4321854934	  C3      1    UNL1	 -0.009168
     73     C	 3.5733230125 -2.5383063807 -3.4321854934	  C3      1    UNL1	  0.005414
     74     C	 3.7521751510 -0.2021578295  0.5109630576	  C3      1    UNL1	  0.007724
     75     C	 4.7396543748 -0.2021578295  0.1901116081	  C3      1    UNL1	  0.011203
     76     C	 4.0573230128  0.7369907210  0.1901116081	  C3      1    UNL1	  0.005231
     77     C	 4.0573230128 -1.1413063801  0.1901116081	  C3      1    UNL1	  0.006198
     78     C	 5.3499500984 -0.2021578295 -0.6498883919	  C3      1    UNL1	  0.015819
     79     C	 4.9761417708  0.8248721097 -0.6498883919	  C3      1    UNL1	  0.012431
     80     C	 4.0296258589  1.3713433262 -0.6498883919	  C3      1    UNL1	  0.001972
     81     C	 4.9761417708 -1.2291877687 -0.6498883919	  C3      1    UNL1	  0.012350
     82     C	 4.9761417708  0.8248721097 -1.6881854930	  C3      1    UNL1	  0.022732
     83     C	 3.3091417700  1.2078721099 -4.1751854941	  C3      1    UNL1	  0.000174
     84     C	 2.3626258581  1.7543433264 -4.1751854941	  C3      1    UNL1	 -0.020439
     85     C	 1.2862876765  1.5645558646 -4.1751854941	  C3      1    UNL1	 -0.026159
     86     C	 0.5837578225  0.7273133872 -4.1751854941	  C3      1    UNL1	 -0.023869
     87     C	 0.5837578225 -0.3656290458 -4.1751854941	  C3      1    UNL1	 -0.023205
     88     C	 1.2862876765 -1.2028715233 -4.1751854941	  C3      1    UNL1	 -0.019821
     89     C	 2.3626258581 -1.3926589851 -4.1751854941	  C3      1    UNL1	 -0.006846
     90     C	 3.0726543741  0.1808421707 -5.0151854941	  C3      1    UNL1	  0.004306
     91     C	 2.3903230120  1.1199907212 -5.0151854941	  C3      1    UNL1	 -0.009239
     92     C	 1.2862876765  0.7612678954 -5.0151854941	  C3      1    UNL1	 -0.015407
     93     C	 1.2862876765 -0.3995835540 -5.0151854941	  C3      1    UNL1	 -0.013099
     94     C	 2.3903230120 -0.7583063799 -5.0151854941	  C3      1    UNL1	 -0.002851
     95     C	 2.0851751502  0.1808421707 -5.3360369436	  C3      1    UNL1	 -0.006416
     96     C	 2.6723230121  2.2819907218 -1.0098883924	  C3      1    UNL1	 -0.015455
     97     C	 3.5911417701  2.3698721105 -1.8498883924	  C3      1    UNL1	 -0.007334
     98     C	 2.6446258583  2.9163433270 -1.8498883924	  C3      1    UNL1	 -0.014581
     99     C	 1.5682876766  2.7265558652 -1.8498883924	  C3      1    UNL1	 -0.022843
    100     C	 3.5911417701  2.3698721105 -2.8881854935	  C3      1    UNL1	 -0.006036
    101     C	 2.6446258583  2.9163433270 -2.8881854935	  C3      1    UNL1	 -0.014944
    102     C	 1.5682876766  2.7265558652 -2.8881854935	  C3      1    UNL1	 -0.023560
    103     C	 0.8657578226  1.8893133877 -2.8881854935	  C3      1    UNL1	 -0.031688
    104     C	 2.6723230121  2.2819907218 -3.7281854935	  C3      1    UNL1	 -0.017278
    105     C	 0.0142876759 -1.8055835547 -0.4448883922	  C3      1    UNL1	 -0.034712
    106     C	 1.1183230114 -2.1643063805 -0.4448883922	  C3      1    UNL1	 -0.028740
    107     C	-0.6882421781 -1.7716290465 -1.2848883922	  C3      1    UNL1	 -0.032252
    108     C	 0.0142876759 -2.6088715239 -1.2848883922	  C3      1    UNL1	 -0.027806
    109     C	 1.0906258575 -2.7986589857 -1.2848883922	  C3      1    UNL1	 -0.023441
    110     C	-0.6882421781 -1.7716290465 -2.3231854933	  C3      1    UNL1	 -0.028366
    111     C	 0.0142876759 -2.6088715239 -2.3231854933	  C3      1    UNL1	 -0.024430
    112     C	 1.0906258575 -2.7986589857 -2.3231854933	  C3      1    UNL1	 -0.021203
    113     C	 0.0142876759 -1.8055835547 -3.1631854933	  C3      1    UNL1	 -0.026489
    114     C	 1.1183230114 -2.1643063805 -3.1631854933	  C3      1    UNL1	 -0.023411
    115     C	 0.3756258572  1.8703433265 -1.7778883924	  C3      1    UNL1	 -0.031667
    116     C	-0.7007123244  1.6805558647 -1.7778883924	  C3      1    UNL1	 -0.019379
    117     C	 0.3756258572  1.8703433265 -2.8161854935	  C3      1    UNL1	 -0.026235
    118     C	-0.7007123244  1.6805558647 -2.8161854935	  C3      1    UNL1	 -0.015232
    119     C	-1.4032421785  0.8433133872 -2.8161854935	  C3      1    UNL1	 -0.007213
    120     C	-1.4032421785 -0.2496290458 -2.8161854935	  C3      1    UNL1	 -0.009669
    121     C	-0.7007123244 -1.0868715232 -2.8161854935	  C3      1    UNL1	 -0.025386
    122     C	 0.4033230110  1.2359907213 -3.6561854935	  C3      1    UNL1	 -0.023976
    123     C	-0.7007123244  0.8772678955 -3.6561854935	  C3      1    UNL1	 -0.013204
    124     C	-0.7007123244 -0.2835835540 -3.6561854935	  C3      1    UNL1	 -0.016386
    125     C	 0.0981751493  0.2968421707 -3.9770369429	  C3      1    UNL1	 -0.020195
    126     C	 2.9856543740 -0.2561578295  1.4841116088	  C3      1    UNL1	  0.005769
    127     C	 2.3033230119  0.6829907210  1.4841116088	  C3      1    UNL1	 -0.002434
    128     C	 2.3033230119 -1.1953063801  1.4841116088	  C3      1    UNL1	  0.006822
    129     C	 3.5959500975 -0.2561578295  0.6441116088	  C3      1    UNL1	  0.006503
    130     C	 3.2221417700  0.7708721097  0.6441116088	  C3      1    UNL1	 -0.006402
    131     C	 1.1992876765 -1.6398715235  0.6441116088	  C3      1    UNL1	 -0.014967
    132     C	 2.2756258581 -1.8296589853  0.6441116088	  C3      1    UNL1	 -0.006042
    133     C	 3.2221417700 -1.2831877688  0.6441116088	  C3      1    UNL1	  0.003013
    134     C	 2.2756258581 -1.8296589853 -0.3941854923	  C3      1    UNL1	 -0.018698
    135     C	 2.4256543737  1.3748421712  1.0461116085	  C3      1    UNL1	 -0.013890
    136     C	 1.7433230117  2.3139907218  1.0461116085	  C3      1    UNL1	 -0.013701
    137     C	 3.0359500973  1.3748421712  0.2061116085	  C3      1    UNL1	 -0.013605
    138     C	 2.6621417697  2.4018721105  0.2061116085	  C3      1    UNL1	 -0.010676
    139     C	 1.7156258578  2.9483433270  0.2061116085	  C3      1    UNL1	 -0.011913
    140     C	 0.6392876762  2.7585558652  0.2061116085	  C3      1    UNL1	 -0.019149
    141     C	 2.6621417697  2.4018721105 -0.8321854926	  C3      1    UNL1	 -0.013892
    142     C	 1.7156258578  2.9483433270 -0.8321854926	  C3      1    UNL1	 -0.014557
    143     C	 0.6392876762  2.7585558652 -0.8321854926	  C3      1    UNL1	 -0.020574
    144     C	 0.6392876762  1.9552678960 -1.6721854926	  C3      1    UNL1	 -0.032735
    145     C	 0.9691751497 -0.3011578296  4.1459630593	  C3      1    UNL1	  0.001871
    146     C	 1.9566543735 -0.3011578296  3.8251116099	  C3      1    UNL1	  0.011086
    147     C	 1.2743230114  0.6379907210  3.8251116099	  C3      1    UNL1	 -0.000842
    148     C	 0.1702876760 -0.8815835543  3.8251116099	  C3      1    UNL1	 -0.008394
    149     C	 1.2743230114 -1.2403063801  3.8251116099	  C3      1    UNL1	  0.005256
    150     C	 2.5669500971 -0.3011578296  2.9851116099	  C3      1    UNL1	  0.013982
    151     C	 2.1931417695  0.7258721097  2.9851116099	  C3      1    UNL1	  0.006716
    152     C	 1.2466258576  1.2723433262  2.9851116099	  C3      1    UNL1	 -0.009192
    153     C	 1.2466258576 -1.8746589853  2.9851116099	  C3      1    UNL1	 -0.000786
    154     C	 2.1931417695 -1.3281877688  2.9851116099	  C3      1    UNL1	  0.011551
    155     C	 2.5669500971 -0.3011578296  1.9468145088	  C3      1    UNL1	  0.012051
    156     C	 2.1931417695  0.7258721097  1.9468145088	  C3      1    UNL1	  0.003581
    157     C	 1.2466258576 -1.8746589853  1.9468145088	  C3      1    UNL1	 -0.005986
    158     C	 2.1931417695 -1.3281877688  1.9468145088	  C3      1    UNL1	  0.008761
    159     C	-1.6478248516 -0.3421578296  4.9559630597	  C3      1    UNL1	 -0.015077
    160     C	-0.6603456277 -0.3421578296  4.6351116102	  C3      1    UNL1	 -0.015985
    161     C	-1.3426769898  0.5969907210  4.6351116102	  C3      1    UNL1	 -0.024223
    162     C	-2.4467123252  0.2382678952  4.6351116102	  C3      1    UNL1	 -0.022848
    163     C	-2.4467123252 -0.9225835543  4.6351116102	  C3      1    UNL1	 -0.019055
    164     C	-1.3426769898 -1.2813063801  4.6351116102	  C3      1    UNL1	 -0.016380
    165     C	-2.4467123252  1.0415558644  3.7951116102	  C3      1    UNL1	 -0.043370
    166     C	-3.1492421793  0.2043133869  3.7951116102	  C3      1    UNL1	 -0.040408
    167     C	-3.1492421793 -0.8886290461  3.7951116102	  C3      1    UNL1	 -0.037015
    168     C	-2.4467123252 -1.7258715235  3.7951116102	  C3      1    UNL1	 -0.032590
    169     C	-1.3703741436 -1.9156589853  3.7951116102	  C3      1    UNL1	 -0.030421
    170     C	-1.3083741436  1.6773433264 -1.4251854928	  C3      1    UNL1	 -0.015880
    171     C	-2.3847123252  1.4875558646 -1.4251854928	  C3      1    UNL1	 -0.013535
    172     C	-3.0872421793  0.6503133871 -1.4251854928	  C3      1    UNL1	 -0.014871
    173     C	-3.0872421793 -0.4426290459 -1.4251854928	  C3      1    UNL1	 -0.018776
    174     C	-2.3847123252 -1.2798715233 -1.4251854928	  C3      1    UNL1	 -0.020292
    175     C	-1.3083741436 -1.4696589851 -1.4251854928	  C3      1    UNL1	 -0.023934
    176     C	-2.3847123252  0.6842678954 -2.2651854928	  C3      1    UNL1	 -0.003604
    177     C	-2.3847123252 -0.4765835541 -2.2651854928	  C3      1    UNL1	 -0.006320
    178     C	-1.2806769898 -0.8353063799 -2.2651854928	  C3      1    UNL1	 -0.014381
    179     C	-1.5858248515  0.1038421706 -2.5860369423	  C3      1    UNL1	 -0.002748
    180     C	-3.6096769909  1.9809907216  2.2291116091	  C3      1    UNL1	 -0.046578
    181     C	-4.7137123263  1.6222678958  2.2291116091	  C3      1    UNL1	 -0.039705
    182     C	-3.6373741447  2.6153433268  1.3891116091	  C3      1    UNL1	 -0.031536
    183     C	-4.7137123263  2.4255558650  1.3891116091	  C3      1    UNL1	 -0.024594
    184     C	-5.4162421804  1.5883133876  1.3891116091	  C3      1    UNL1	 -0.028326
    185     C	-2.6908582328  2.0688721103  0.3508145080	  C3      1    UNL1	 -0.041475
    186     C	-3.6373741447  2.6153433268  0.3508145080	  C3      1    UNL1	 -0.024292
    187     C	-4.7137123263  2.4255558650  0.3508145080	  C3      1    UNL1	 -0.019030
    188     C	-5.4162421804  1.5883133876  0.3508145080	  C3      1    UNL1	 -0.023203
    189     C	-3.6096769909  1.9809907216 -0.4891854920	  C3      1    UNL1	 -0.023980
    190     C	-4.7137123263  1.6222678958 -0.4891854920	  C3      1    UNL1	 -0.022663
    191     C	-3.9148248526  1.0418421711 -0.8100369414	  C3      1    UNL1	 -0.029363
    192     C	-3.9818248527  0.0168421706  3.8999630592	  C3      1    UNL1	 -0.038993
    193     C	-3.6766769909  0.9559907212  3.5791116097	  C3      1    UNL1	 -0.044722
    194     C	-4.7807123264  0.5972678953  3.5791116097	  C3      1    UNL1	 -0.036933
    195     C	-4.7807123264 -0.5635835541  3.5791116097	  C3      1    UNL1	 -0.038837
    196     C	-3.6766769909 -0.9223063799  3.5791116097	  C3      1    UNL1	 -0.045183
    197     C	-3.7043741447  1.5903433263  2.7391116097	  C3      1    UNL1	 -0.051194
    198     C	-4.7807123264  1.4005558646  2.7391116097	  C3      1    UNL1	 -0.040692
    199     C	-5.4832421804  0.5633133871  2.7391116097	  C3      1    UNL1	 -0.037640
    200     C	-5.4832421804 -0.5296290459  2.7391116097	  C3      1    UNL1	 -0.041132
    201     C	-4.7807123264 -1.3668715234  2.7391116097	  C3      1    UNL1	 -0.049958
    202     C	-3.7043741447 -1.5566589851  2.7391116097	  C3      1    UNL1	 -0.060459
    203     C	-5.5282421804 -1.2246290462  1.0941116090	  C3      1    UNL1	 -0.044193
    204     C	-4.8257123264 -2.0618715237  1.0941116090	  C3      1    UNL1	 -0.047466
    205     C	-3.7493741448 -2.2516589855  1.0941116090	  C3      1    UNL1	 -0.056967
    206     C	-5.5282421804 -0.1316866132  0.0558145079	  C3      1    UNL1	 -0.037156
    207     C	-5.5282421804 -1.2246290462  0.0558145079	  C3      1    UNL1	 -0.035769
    208     C	-4.8257123264 -2.0618715237  0.0558145079	  C3      1    UNL1	 -0.037716
    209     C	-3.7493741448 -2.2516589855  0.0558145079	  C3      1    UNL1	 -0.044856
    210     C	-2.8028582329 -1.7051877690  0.0558145079	  C3      1    UNL1	 -0.056170
    211     C	-4.8257123264 -0.0977321050 -0.7841854921	  C3      1    UNL1	 -0.036120
    212     C	-4.8257123264 -1.2585835545 -0.7841854921	  C3      1    UNL1	 -0.033472
    213     C	-3.7216769909 -1.6173063803 -0.7841854921	  C3      1    UNL1	 -0.037706
    214     C	-4.0268248527 -0.6781578297 -1.1050369416	  C3      1    UNL1	 -0.034580
    215     C	 0.5668356362  2.4060048121  1.0640132999	  C3      1    UNL1	 -0.022969
    216     C	-0.4744853377  2.4060048121  1.0640132999	  C3      1    UNL1	 -0.035560
    217     C	-0.4744853377  2.4060048121 -0.0040871831	  C3      1    UNL1	 -0.029172
    218     C	 0.5668356362 -2.1563204708 -0.0040871831	  C3      1    UNL1	 -0.028691
    219     C	 2.7736995419  1.3272981990  1.1523385824	  C3      1    UNL1	 -0.010285
    220     C	 3.3032864234  1.3280550537  0.1900132995	  C3      1    UNL1	 -0.009463
    221     C	-0.2636831161  2.1421925745 -0.8780871835	  C3      1    UNL1	 -0.026232
    222     C	 0.6128356362  0.7936525874  4.0292883420	  C3      1    UNL1	 -0.014439
    223     C	 0.8716580344  1.5986716060  3.3633385835	  C3      1    UNL1	 -0.019098
    224     C	-0.1748637811  1.7491387272  3.3633385835	  C3      1    UNL1	 -0.039833
    225     C	 1.5510334152  1.7211925743  2.4010133005	  C3      1    UNL1	 -0.011370
    226     C	 0.6128356362  2.1730048120  2.4010133005	  C3      1    UNL1	 -0.026065
    227     C	-0.4284853377  2.1730048120  2.4010133005	  C3      1    UNL1	 -0.045221
    228     C	 0.6128356362 -2.3893204709  2.4010133005	  C3      1    UNL1	 -0.020041
    229     C	-0.4284853377 -2.3893204709  1.3329128175	  C3      1    UNL1	 -0.040172
    230     C	 0.6128356362 -2.3893204709  1.3329128175	  C3      1    UNL1	 -0.023153
    231     C	 1.5510334152 -1.9375082332  1.3329128175	  C3      1    UNL1	 -0.007941
    232     C	-0.1535038775 -0.1571578295  4.4752883422	  C3      1    UNL1	 -0.015831
    233     C	-0.4153419663  1.5496716059  3.8093385837	  C3      1    UNL1	 -0.037579
    234     C	-1.4618637817  1.7001387272  3.8093385837	  C3      1    UNL1	 -0.043391
    235     C	-0.4153419663 -1.8639872649  3.8093385837	  C3      1    UNL1	 -0.024367
    236     C	-0.6741643644  2.1240048120  2.8470133007	  C3      1    UNL1	 -0.047751
    237     C	-1.7154853383  2.1240048120  2.8470133007	  C3      1    UNL1	 -0.053922
    238     C	-2.6536831173 -1.9865082332  2.8470133007	  C3      1    UNL1	 -0.052911
    239     C	-1.7154853383 -2.4383204710  2.8470133007	  C3      1    UNL1	 -0.046078
    240     C	-0.6741643644 -2.4383204710  2.8470133007	  C3      1    UNL1	 -0.039001
    241     C	-1.7154853383 -2.4383204710  1.7789128177	  C3      1    UNL1	 -0.055247
    242     C	-0.6741643644 -2.4383204710  1.7789128177	  C3      1    UNL1	 -0.045692
    243     C	-2.3318637821  1.9801387273  2.7113385832	  C3      1    UNL1	 -0.056793
    244     C	-1.5441643648  2.4040048121  1.7490133002	  C3      1    UNL1	 -0.052303
    245     C	-2.5854853387  2.4040048121  1.7490133002	  C3      1    UNL1	 -0.049862
    246     C	-2.5854853387 -2.1583204708  1.7490133002	  C3      1    UNL1	 -0.063753
    247     C	-1.5441643648  2.4040048121  0.6809128172	  C3      1    UNL1	 -0.044151
    248     C	-2.5854853387 -2.1583204708  0.6809128172	  C3      1    UNL1	 -0.058310
    249     C	-1.7814853383 -2.2503204709  0.6550132997	  C3      1    UNL1	 -0.051612
    250     C	-0.7401643644 -2.2503204709  0.6550132997	  C3      1    UNL1	 -0.039985
    251     C	-0.7401643644  2.3120048121 -0.4130871833	  C3      1    UNL1	 -0.028149
    252     C	-1.7814853383  2.3120048121 -0.4130871833	  C3      1    UNL1	 -0.030610
    253     C	-2.7196831173  1.8601925743 -0.4130871833	  C3      1    UNL1	 -0.030749
    254     C	-2.7196831173 -1.7985082331 -0.4130871833	  C3      1    UNL1	 -0.043628
    255     C	-1.7814853383 -2.2503204709 -0.4130871833	  C3      1    UNL1	 -0.037370
    256     C	-0.7401643644 -2.2503204709 -0.4130871833	  C3      1    UNL1	 -0.033821
    257     C	-1.5278637817 -1.8264543861 -1.3754124663	  C3      1    UNL1	 -0.026668
    258     C	-3.8278637828  1.9271387273  2.7123385832	  C3      1    UNL1	 -0.044291
    259     C	-5.6689361260  1.0850550536  1.7500133002	  C3      1    UNL1	 -0.033559
    260     C	-5.9006518417  0.0698421706  1.7500133002	  C3      1    UNL1	 -0.037822
    261     C	-5.6689361260 -0.9453707124  1.7500133002	  C3      1    UNL1	 -0.043919
    262     C	-4.0814853394 -2.2113204709  1.7500133002	  C3      1    UNL1	 -0.055464
    263     C	-3.0401643655 -2.2113204709  1.7500133002	  C3      1    UNL1	 -0.061108
    264     C	-5.9006518417  0.0698421706  0.6819128172	  C3      1    UNL1	 -0.035099
    265     C	-3.5608248525  0.0698421706 -1.1840369413	  C3      1    UNL1	 -0.028224
    266     C	 0.4425146627 -1.0479682464 -3.9663622257	  C3      1    UNL1	 -0.023300
    267     C	 0.7313168843  2.1161925744 -3.1100871846	  C3      1    UNL1	 -0.027264
    268     C	 3.7686995423  1.3012981990 -4.0724124675	  C3      1    UNL1	  0.009006
    269     C	 2.9696580353  1.9936716062 -4.0724124675	  C3      1    UNL1	 -0.011850
    270     C	 1.9231362199  2.1441387274 -4.0724124675	  C3      1    UNL1	 -0.022291
    271     C	 0.9613973780  1.7049273149 -4.0724124675	  C3      1    UNL1	 -0.024877
    272     C	 5.7790021401 -0.5261578297 -1.6269867014	  C3      1    UNL1	  0.023636
    273     C	 5.5472864244  0.4890550533 -1.6269867014	  C3      1    UNL1	  0.022089
    274     C	 4.8980334167  1.3031925741 -1.6269867014	  C3      1    UNL1	  0.013649
    275     C	 5.5472864244 -1.5413707126 -1.6269867014	  C3      1    UNL1	  0.018326
    276     C	 2.2103973786 -1.9442429739 -3.6574124673	  C3      1    UNL1	 -0.012047
    277     C	 4.2186580359 -2.2329872651 -3.6574124673	  C3      1    UNL1	  0.016311
    278     C	 2.9185146639 -1.4279682465 -4.3233622258	  C3      1    UNL1	  0.003732
    279     C	 5.8909439265 -0.3701578296 -1.9370369432	  C3      1    UNL1	  0.027174
    280     C	 5.5733833481  0.6071931345 -1.9370369432	  C3      1    UNL1	  0.025127
    281     C	 6.1481751512 -0.3701578296 -2.8970369432	  C3      1    UNL1	  0.031747
    282     C	 5.8909439265  0.5898421704 -2.8970369432	  C3      1    UNL1	  0.030252
    283     C	 5.1881751512  1.2926109457 -2.8970369432	  C3      1    UNL1	  0.024764
    284     C	 5.1881751512 -2.0329266048 -2.8970369432	  C3      1    UNL1	  0.023833
    285     C	 5.8909439265 -1.3301578296 -2.8970369432	  C3      1    UNL1	  0.029572
    286     C	 5.8909439265 -0.3701578296 -3.8570369432	  C3      1    UNL1	  0.033687
    287     C	 5.5733833481  0.6071931345 -3.8570369432	  C3      1    UNL1	  0.031692
    288     C	 4.7419989605  1.2112292492 -3.8570369432	  C3      1    UNL1	  0.024549
    289     C	 4.7419989605 -1.9515449084 -3.8570369432	  C3      1    UNL1	  0.024288
    290     C	 5.5733833481 -1.3475087937 -3.8570369432	  C3      1    UNL1	  0.031056
    291     C	 5.1881751512 -0.3701578296 -4.5598057185	  C3      1    UNL1	  0.031786
    292     C	 4.7081751512  0.4612265581 -4.5598057185	  C3      1    UNL1	  0.027973
    293     C	 3.7481751512 -1.2015422172 -4.5598057185	  C3      1    UNL1	  0.019746
    294     C	 4.7081751512 -1.2015422172 -4.5598057185	  C3      1    UNL1	  0.027958
    295     C	 4.2281751512 -0.3701578296 -4.8170369432	  C3      1    UNL1	  0.025449
    296     C	 2.7881751508 -2.4305422178 -0.4102681676	  C3      1    UNL1	 -0.011145
    297     C	 3.7481751508 -2.4305422178 -0.4102681676	  C3      1    UNL1	 -0.002889
    298     C	 2.7543513415 -3.1805449090 -1.1130369428	  C3      1    UNL1	 -0.009319
    299     C	 3.7819989600 -3.1805449090 -1.1130369428	  C3      1    UNL1	 -0.001866
    300     C	 4.6133833477 -2.5765087942 -1.1130369428	  C3      1    UNL1	  0.004241
    301     C	 2.3081751508 -3.2619266054 -2.0730369428	  C3      1    UNL1	 -0.011246
    302     C	 3.2681751508 -3.5191578302 -2.0730369428	  C3      1    UNL1	 -0.003264
    303     C	 4.2281751508 -3.2619266054 -2.0730369428	  C3      1    UNL1	  0.002982
    304     C	 4.9309439260 -2.5591578302 -2.0730369428	  C3      1    UNL1	  0.010691
    305     C	 1.9229669539 -2.5765087942 -3.0330369428	  C3      1    UNL1	 -0.015765
    306     C	 2.7543513415 -3.1805449090 -3.0330369428	  C3      1    UNL1	 -0.005642
    307     C	 3.7819989600 -3.1805449090 -3.0330369428	  C3      1    UNL1	  0.002552
    308     C	 4.6133833477 -2.5765087942 -3.0330369428	  C3      1    UNL1	  0.013134
    309     C	 2.7881751508 -2.4305422178 -3.7358057181	  C3      1    UNL1	 -0.003627
    310     C	 3.7481751508 -2.4305422178 -3.7358057181	  C3      1    UNL1	  0.008202
    311     C	 4.7121751510 -0.2021578295  0.4937318329	  C3      1    UNL1	  0.007728
    312     C	 4.2321751510  0.6292265581  0.4937318329	  C3      1    UNL1	  0.004197
    313     C	 4.2321751510 -1.0335422171  0.4937318329	  C3      1    UNL1	  0.005526
    314     C	 5.4149439263 -0.2021578295 -0.2090369424	  C3      1    UNL1	  0.011183
    315     C	 5.0973833479  0.7751931346 -0.2090369424	  C3      1    UNL1	  0.008926
    316     C	 4.2659989603  1.3792292493 -0.2090369424	  C3      1    UNL1	  0.002020
    317     C	 4.2659989603 -1.7835449083 -0.2090369424	  C3      1    UNL1	  0.002756
    318     C	 5.0973833479 -1.1795087936 -0.2090369424	  C3      1    UNL1	  0.009010
    319     C	 5.6721751510 -0.2021578295 -1.1690369424	  C3      1    UNL1	  0.018423
    320     C	 5.4149439263  0.7578421705 -1.1690369424	  C3      1    UNL1	  0.015154
    321     C	 4.7121751510  1.4606109458 -1.1690369424	  C3      1    UNL1	  0.007784
    322     C	 3.4303833471  1.1581931348 -4.6160369436	  C3      1    UNL1	  0.002631
    323     C	 2.5989989595  1.7622292495 -4.6160369436	  C3      1    UNL1	 -0.012333
    324     C	 1.5713513409  1.7622292495 -4.6160369436	  C3      1    UNL1	 -0.019189
    325     C	 0.7399669533  1.1581931348 -4.6160369436	  C3      1    UNL1	 -0.019967
    326     C	 0.4224063749  0.1808421707 -4.6160369436	  C3      1    UNL1	 -0.019065
    327     C	 0.7399669533 -0.7965087934 -4.6160369436	  C3      1    UNL1	 -0.018092
    328     C	 1.5713513409 -1.4005449081 -4.6160369436	  C3      1    UNL1	 -0.013010
    329     C	 2.5989989595 -1.4005449081 -4.6160369436	  C3      1    UNL1	 -0.001718
    330     C	 3.4303833471 -0.7965087934 -4.6160369436	  C3      1    UNL1	  0.016265
    331     C	 3.0451751502  0.1808421707 -5.3188057189	  C3      1    UNL1	  0.002228
    332     C	 2.5651751502  1.0122265583 -5.3188057189	  C3      1    UNL1	 -0.005970
    333     C	 1.6051751502  1.0122265583 -5.3188057189	  C3      1    UNL1	 -0.012311
    334     C	 1.1251751502  0.1808421707 -5.3188057189	  C3      1    UNL1	 -0.012931
    335     C	 1.6051751502 -0.6505422170 -5.3188057189	  C3      1    UNL1	 -0.009397
    336     C	 2.5651751502 -0.6505422170 -5.3188057189	  C3      1    UNL1	 -0.001356
    337     C	 2.0851751502  0.1808421707 -5.5760369436	  C3      1    UNL1	 -0.006346
    338     C	 3.7123833472  2.3201931353 -1.4090369430	  C3      1    UNL1	 -0.006616
    339     C	 2.8809989596  2.9242292500 -1.4090369430	  C3      1    UNL1	 -0.012749
    340     C	 1.8533513411  2.9242292500 -1.4090369430	  C3      1    UNL1	 -0.018119
    341     C	 4.0299439256  2.3028421712 -2.3690369430	  C3      1    UNL1	 -0.001408
    342     C	 3.3271751503  3.0056109465 -2.3690369430	  C3      1    UNL1	 -0.009461
    343     C	 2.3671751503  3.2628421712 -2.3690369430	  C3      1    UNL1	 -0.015297
    344     C	 1.4071751503  3.0056109465 -2.3690369430	  C3      1    UNL1	 -0.021466
    345     C	 0.7044063751  2.3028421712 -2.3690369430	  C3      1    UNL1	 -0.028170
    346     C	 3.7123833472  2.3201931353 -3.3290369430	  C3      1    UNL1	 -0.003730
    347     C	 2.8809989596  2.9242292500 -3.3290369430	  C3      1    UNL1	 -0.012636
    348     C	 1.8533513411  2.9242292500 -3.3290369430	  C3      1    UNL1	 -0.019474
    349     C	 1.0219669534  2.3201931353 -3.3290369430	  C3      1    UNL1	 -0.026087
    350     C	 2.8471751503  2.1742265589 -4.0318057182	  C3      1    UNL1	 -0.013502
    351     C	 1.8871751503  2.1742265589 -4.0318057182	  C3      1    UNL1	 -0.022607
    352     C	-0.5320330473 -2.2025087941 -0.8440369427	  C3      1    UNL1	 -0.032394
    353     C	 0.2993513403 -2.8065449088 -0.8440369427	  C3      1    UNL1	 -0.026666
    354     C	 1.3269989589 -2.8065449088 -0.8440369427	  C3      1    UNL1	 -0.022556
    355     C	-0.8495936257 -2.1851578300 -1.8040369427	  C3      1    UNL1	 -0.027810
    356     C	-0.1468248504 -2.8879266053 -1.8040369427	  C3      1    UNL1	 -0.024590
    357     C	 0.8131751496 -3.1451578300 -1.8040369427	  C3      1    UNL1	 -0.021041
    358     C	 1.7731751496 -2.8879266053 -1.8040369427	  C3      1    UNL1	 -0.018661
    359     C	-0.5320330473 -2.2025087941 -2.7640369427	  C3      1    UNL1	 -0.024540
    360     C	 0.2993513403 -2.8065449088 -2.7640369427	  C3      1    UNL1	 -0.021561
    361     C	 1.3269989589 -2.8065449088 -2.7640369427	  C3      1    UNL1	 -0.019115
    362     C	 0.3331751496 -2.0565422176 -3.4668057180	  C3      1    UNL1	 -0.023005
    363     C	 1.2931751496 -2.0565422176 -3.4668057180	  C3      1    UNL1	 -0.021305
    364     C	-0.4156486600  1.8782292495 -1.3370369429	  C3      1    UNL1	 -0.024963
    365     C	 0.0981751493  2.2168421707 -2.2970369429	  C3      1    UNL1	 -0.024611
    366     C	-0.8618248507  1.9596109460 -2.2970369429	  C3      1    UNL1	 -0.017395
    367     C	-0.4156486600  1.8782292495 -3.2570369429	  C3      1    UNL1	 -0.017540
    368     C	-1.2470330476  1.2741931348 -3.2570369429	  C3      1    UNL1	 -0.012105
    369     C	-1.5645936260  0.2968421707 -3.2570369429	  C3      1    UNL1	 -0.010408
    370     C	-1.2470330476 -0.6805087933 -3.2570369429	  C3      1    UNL1	 -0.016242
    371     C	-0.3818248507  1.1282265584 -3.9598057182	  C3      1    UNL1	 -0.016302
    372     C	-0.8618248507  0.2968421707 -3.9598057182	  C3      1    UNL1	 -0.014429
    373     C	-0.3818248507 -0.5345422169 -3.9598057182	  C3      1    UNL1	 -0.019018
    374     C	 0.0981751493  0.2968421707 -4.2170369429	  C3      1    UNL1	 -0.019768
    375     C	 2.9581751502 -0.2561578295  1.7877318335	  C3      1    UNL1	  0.006323
    376     C	 3.6609439254 -0.2561578295  1.0849630582	  C3      1    UNL1	  0.004043
    377     C	 3.3433833471  0.7211931345  1.0849630582	  C3      1    UNL1	 -0.003216
    378     C	 2.5119989594 -1.8375449083  1.0849630582	  C3      1    UNL1	 -0.002331
    379     C	 3.3433833471 -1.2335087936  1.0849630582	  C3      1    UNL1	  0.003087
    380     C	 1.9981751502 -2.1761578295  0.1249630582	  C3      1    UNL1	 -0.015435
    381     C	 2.9581751502 -1.9189266048  0.1249630582	  C3      1    UNL1	 -0.006167
    382     C	 1.9181751499  2.2062265589  1.3497318333	  C3      1    UNL1	 -0.013167
    383     C	 0.9581751499  2.2062265589  1.3497318333	  C3      1    UNL1	 -0.019451
    384     C	 2.7833833468  2.3521931353  0.6469630580	  C3      1    UNL1	 -0.010606
    385     C	 1.9519989592  2.9562292501  0.6469630580	  C3      1    UNL1	 -0.012406
    386     C	 0.9243513406  2.9562292501  0.6469630580	  C3      1    UNL1	 -0.017902
    387     C	 3.1009439252  2.3348421712 -0.3130369420	  C3      1    UNL1	 -0.010647
    388     C	 2.3981751499  3.0376109465 -0.3130369420	  C3      1    UNL1	 -0.011538
    389     C	 1.4381751499  3.2948421712 -0.3130369420	  C3      1    UNL1	 -0.014413
    390     C	 0.4781751499  3.0376109465 -0.3130369420	  C3      1    UNL1	 -0.019937
    391     C	 1.9519989592  2.9562292501 -1.2730369420	  C3      1    UNL1	 -0.016851
    392     C	 0.9243513406  2.9562292501 -1.2730369420	  C3      1    UNL1	 -0.020487
    393     C	 0.0929669530  2.3521931353 -1.2730369420	  C3      1    UNL1	 -0.025830
    394     C	 0.9691751497 -0.3011578296  4.3859630593	  C3      1    UNL1	 -0.002287
    395     C	 1.9291751497 -0.3011578296  4.1287318346	  C3      1    UNL1	  0.005142
    396     C	 1.4491751497  0.5302265581  4.1287318346	  C3      1    UNL1	 -0.001621
    397     C	 0.4891751497 -1.1325422172  4.1287318346	  C3      1    UNL1	 -0.006877
    398     C	 1.4491751497 -1.1325422172  4.1287318346	  C3      1    UNL1	  0.002317
    399     C	 2.6319439249 -0.3011578296  3.4259630593	  C3      1    UNL1	  0.008729
    400     C	 2.3143833466  0.6761931345  3.4259630593	  C3      1    UNL1	  0.003821
    401     C	 1.4829989589  1.2802292493  3.4259630593	  C3      1    UNL1	 -0.007134
    402     C	 1.4829989589 -1.8825449084  3.4259630593	  C3      1    UNL1	 -0.000322
    403     C	 2.3143833466 -1.2785087936  3.4259630593	  C3      1    UNL1	  0.007343
    404     C	 2.8891751497 -0.3011578296  2.4659630593	  C3      1    UNL1	  0.009006
    405     C	 2.6319439249  0.6588421704  2.4659630593	  C3      1    UNL1	  0.004207
    406     C	 1.9291751497  1.3616109457  2.4659630593	  C3      1    UNL1	 -0.004449
    407     C	 1.9291751497 -1.9639266048  2.4659630593	  C3      1    UNL1	  0.000820
    408     C	 2.6319439249 -1.2611578296  2.4659630593	  C3      1    UNL1	  0.007919
    409     C	-1.6478248516 -0.3421578296  5.1959630597	  C3      1    UNL1	 -0.016493
    410     C	-0.6878248516 -0.3421578296  4.9387318350	  C3      1    UNL1	 -0.015810
    411     C	-1.1678248516  0.4892265581  4.9387318350	  C3      1    UNL1	 -0.021144
    412     C	-2.1278248516  0.4892265581  4.9387318350	  C3      1    UNL1	 -0.022635
    413     C	-2.6078248516 -0.3421578296  4.9387318350	  C3      1    UNL1	 -0.020872
    414     C	-2.1278248516 -1.1735422172  4.9387318350	  C3      1    UNL1	 -0.018397
    415     C	-1.1678248516 -1.1735422172  4.9387318350	  C3      1    UNL1	 -0.016008
    416     C	-2.1616486608  1.2392292492  4.2359630597	  C3      1    UNL1	 -0.035526
    417     C	-2.9930330485  0.6351931345  4.2359630597	  C3      1    UNL1	 -0.033931
    418     C	-3.3105936268 -0.3421578296  4.2359630597	  C3      1    UNL1	 -0.032133
    419     C	-2.9930330485 -1.3195087936  4.2359630597	  C3      1    UNL1	 -0.029189
    420     C	-2.1616486608 -1.9235449084  4.2359630597	  C3      1    UNL1	 -0.026191
    421     C	-1.1340010423 -1.9235449084  4.2359630597	  C3      1    UNL1	 -0.023318
    422     C	-0.3026166547 -1.3195087936  4.2359630597	  C3      1    UNL1	 -0.017091
    423     C	-2.6078248516 -2.0049266048  3.2759630597	  C3      1    UNL1	 -0.043615
    424     C	-2.0996486608  1.6852292495 -1.8660369423	  C3      1    UNL1	 -0.012803
    425     C	-2.9310330484  1.0811931347 -1.8660369423	  C3      1    UNL1	 -0.012696
    426     C	-3.2485936268  0.1038421706 -1.8660369423	  C3      1    UNL1	 -0.015216
    427     C	-2.9310330484 -0.8735087934 -1.8660369423	  C3      1    UNL1	 -0.017203
    428     C	-2.0996486608 -1.4775449082 -1.8660369423	  C3      1    UNL1	 -0.019077
    429     C	-2.0658248515  0.9352265583 -2.5688057176	  C3      1    UNL1	 -0.006934
    430     C	-2.5458248515  0.1038421706 -2.5688057176	  C3      1    UNL1	 -0.007782
    431     C	-2.0658248515 -0.7275422170 -2.5688057176	  C3      1    UNL1	 -0.010812
    432     C	-3.4010010434  2.6232292499  1.8299630586	  C3      1    UNL1	 -0.037305
    433     C	-4.4286486619  2.6232292499  1.8299630586	  C3      1    UNL1	 -0.028849
    434     C	-5.2600330495  2.0191931352  1.8299630586	  C3      1    UNL1	 -0.028761
    435     C	-2.9548248526  2.7046109464  0.8699630586	  C3      1    UNL1	 -0.035069
    436     C	-3.9148248526  2.9618421711  0.8699630586	  C3      1    UNL1	 -0.024830
    437     C	-4.8748248526  2.7046109464  0.8699630586	  C3      1    UNL1	 -0.021487
    438     C	-5.5775936279  2.0018421711  0.8699630586	  C3      1    UNL1	 -0.023214
    439     C	-5.8348248526  1.0418421711  0.8699630586	  C3      1    UNL1	 -0.029244
    440     C	-3.4010010434  2.6232292499 -0.0900369414	  C3      1    UNL1	 -0.025106
    441     C	-4.4286486619  2.6232292499 -0.0900369414	  C3      1    UNL1	 -0.020081
    442     C	-5.2600330495  2.0191931352 -0.0900369414	  C3      1    UNL1	 -0.020942
    443     C	-5.5775936279  1.0418421711 -0.0900369414	  C3      1    UNL1	 -0.027262
    444     C	-3.4348248526  1.8732265587 -0.7928057167	  C3      1    UNL1	 -0.024147
    445     C	-4.3948248526  1.8732265587 -0.7928057167	  C3      1    UNL1	 -0.022011
    446     C	-4.8748248526  1.0418421711 -0.7928057167	  C3      1    UNL1	 -0.027364
    447     C	-3.9148248526  1.0418421711 -1.0500369414	  C3      1    UNL1	 -0.026958
    448     C	-3.9818248527  0.0168421706  4.1399630592	  C3      1    UNL1	 -0.035666
    449     C	-3.5018248527  0.8482265582  3.8827318345	  C3      1    UNL1	 -0.040442
    450     C	-4.4618248527  0.8482265582  3.8827318345	  C3      1    UNL1	 -0.035578
    451     C	-4.9418248527  0.0168421706  3.8827318345	  C3      1    UNL1	 -0.034100
    452     C	-4.4618248527 -0.8145422170  3.8827318345	  C3      1    UNL1	 -0.037076
    453     C	-3.5018248527 -0.8145422170  3.8827318345	  C3      1    UNL1	 -0.038576
    454     C	-3.4680010434  1.5982292494  3.1799630592	  C3      1    UNL1	 -0.047353
    455     C	-4.4956486619  1.5982292494  3.1799630592	  C3      1    UNL1	 -0.038436
    456     C	-5.3270330496  0.9941931347  3.1799630592	  C3      1    UNL1	 -0.034479
    457     C	-5.6445936279  0.0168421706  3.1799630592	  C3      1    UNL1	 -0.034697
    458     C	-5.3270330496 -0.9605087935  3.1799630592	  C3      1    UNL1	 -0.038447
    459     C	-4.4956486619 -1.5645449082  3.1799630592	  C3      1    UNL1	 -0.044496
    460     C	-3.4680010434 -1.5645449082  3.1799630592	  C3      1    UNL1	 -0.050519
    461     C	-5.6445936279  0.9768421706  2.2199630592	  C3      1    UNL1	 -0.035311
    462     C	-5.9018248527  0.0168421706  2.2199630592	  C3      1    UNL1	 -0.037314
    463     C	-5.6445936279 -0.9431578294  2.2199630592	  C3      1    UNL1	 -0.042578
    464     C	-4.9418248527 -1.6459266047  2.2199630592	  C3      1    UNL1	 -0.050706
    465     C	-5.3720330496 -1.6555087938  1.5349630584	  C3      1    UNL1	 -0.045139
    466     C	-4.5406486620 -2.2595449085  1.5349630584	  C3      1    UNL1	 -0.049417
    467     C	-5.9468248527 -0.6781578297  0.5749630584	  C3      1    UNL1	 -0.035942
    468     C	-5.6895936280 -1.6381578297  0.5749630584	  C3      1    UNL1	 -0.036284
    469     C	-4.9868248527 -2.3409266050  0.5749630584	  C3      1    UNL1	 -0.038509
    470     C	-4.0268248527 -2.5981578297  0.5749630584	  C3      1    UNL1	 -0.043675
    471     C	-3.0668248527 -2.3409266050  0.5749630584	  C3      1    UNL1	 -0.052945
    472     C	-5.3720330496  0.2991931343 -0.3850369416	  C3      1    UNL1	 -0.033420
    473     C	-5.6895936280 -0.6781578297 -0.3850369416	  C3      1    UNL1	 -0.032240
    474     C	-5.3720330496 -1.6555087938 -0.3850369416	  C3      1    UNL1	 -0.032164
    475     C	-4.5406486620 -2.2595449085 -0.3850369416	  C3      1    UNL1	 -0.034605
    476     C	-3.5130010434 -2.2595449085 -0.3850369416	  C3      1    UNL1	 -0.039781
    477     C	-4.5068248527  0.1532265579 -1.0878057169	  C3      1    UNL1	 -0.032655
    478     C	-4.9868248527 -0.6781578297 -1.0878057169	  C3      1    UNL1	 -0.031064
    479     C	-4.5068248527 -1.5095422174 -1.0878057169	  C3      1    UNL1	 -0.031398
    480     C	-3.5468248527 -1.5095422174 -1.0878057169	  C3      1    UNL1	 -0.033462
    481     C	-4.0268248527 -0.6781578297 -1.3450369416	  C3      1    UNL1	 -0.030578
    482     C	 0.6012479976  2.5567752187  1.5632083258	  C3      1    UNL1	 -0.023575
    483     C	-0.5088976991  2.5567752187  1.5632083258	  C3      1    UNL1	 -0.037150
    484     C	 0.0461751492  2.8248421707  0.5299630584	  C3      1    UNL1	 -0.025141
    485     C	 0.0461751492 -2.5751578293  0.5299630584	  C3      1    UNL1	 -0.029498
    486     C	 1.0794204166 -2.3696325671  0.5299630584	  C3      1    UNL1	 -0.020432
    487     C	-0.5088976991  2.5567752187 -0.5032822090	  C3      1    UNL1	 -0.026066
    488     C	 2.8012865597  1.3450272989  1.5651513672	  C3      1    UNL1	 -0.006841
    489     C	 3.4426192303  1.3951541971  0.6892083254	  C3      1    UNL1	 -0.006877
    490     C	-0.3601044102  2.2631010530 -1.3772822094	  C3      1    UNL1	 -0.024351
    491     C	 0.6087977830  0.7866588204  4.3614377968	  C3      1    UNL1	 -0.014073
    492     C	 0.8852806356  1.6285009417  3.7761513682	  C3      1    UNL1	 -0.017381
    493     C	 1.6474547093  1.8421010528  2.9002083264	  C3      1    UNL1	 -0.011112
    494     C	 0.6472479976  2.3237752186  2.9002083264	  C3      1    UNL1	 -0.024205
    495     C	 0.6472479976 -2.5400908776  2.9002083264	  C3      1    UNL1	 -0.017018
    496     C	 2.0013634585  1.8010304797  1.8669630590	  C3      1    UNL1	 -0.010148
    497     C	 1.1254204166  2.3863169083  1.8669630590	  C3      1    UNL1	 -0.018633
    498     C	 0.0921751493  2.5918421705  1.8669630590	  C3      1    UNL1	 -0.030261
    499     C	 0.0921751493 -2.8081578295  1.8669630590	  C3      1    UNL1	 -0.028575
    500     C	 1.1254204166 -2.6026325672  1.8669630590	  C3      1    UNL1	 -0.014814
    501     C	-0.4628976991 -2.5400908776  0.8337177916	  C3      1    UNL1	 -0.035775
    502     C	 0.6472479976 -2.5400908776  0.8337177916	  C3      1    UNL1	 -0.023352
    503     C	-0.4017193651  1.5795009417  4.2221513684	  C3      1    UNL1	 -0.030025
    504     C	-1.4665306768  1.7325976956  4.2221513684	  C3      1    UNL1	 -0.035142
    505     C	-0.4017193651 -1.8938166007  4.2221513684	  C3      1    UNL1	 -0.019750
    506     C	-0.6397520030  2.2747752186  3.3462083266	  C3      1    UNL1	 -0.038689
    507     C	-1.7498976997  2.2747752186  3.3462083266	  C3      1    UNL1	 -0.043619
    508     C	-2.7501044113  1.7931010527  3.3462083266	  C3      1    UNL1	 -0.046999
    509     C	-1.7498976997 -2.5890908776  3.3462083266	  C3      1    UNL1	 -0.036310
    510     C	-0.6397520030 -2.5890908776  3.3462083266	  C3      1    UNL1	 -0.030084
    511     C	-1.1948248513  2.5428421705  2.3129630592	  C3      1    UNL1	 -0.045913
    512     C	-2.2280701187 -2.6516325673  2.3129630592	  C3      1    UNL1	 -0.048243
    513     C	-1.1948248513 -2.8571578295  2.3129630592	  C3      1    UNL1	 -0.040972
    514     C	-1.7498976997 -2.5890908776  1.2797177918	  C3      1    UNL1	 -0.049988
    515     C	-1.5097520034  2.5547752187  2.2482083261	  C3      1    UNL1	 -0.047569
    516     C	-2.6198977001  2.5547752187  2.2482083261	  C3      1    UNL1	 -0.045433
    517     C	-1.0315795844  2.6173169084  1.2149630587	  C3      1    UNL1	 -0.040300
    518     C	-2.0648248518  2.8228421707  1.2149630587	  C3      1    UNL1	 -0.041062
    519     C	-2.0648248518 -2.5771578293  1.2149630587	  C3      1    UNL1	 -0.051320
    520     C	-2.6198977001 -2.3090908774  0.1817177913	  C3      1    UNL1	 -0.048065
    521     C	-1.2608248514  2.7308421706  0.1209630582	  C3      1    UNL1	 -0.032029
    522     C	-2.2940701188 -2.4636325672  0.1209630582	  C3      1    UNL1	 -0.044001
    523     C	-1.2608248514 -2.6691578294  0.1209630582	  C3      1    UNL1	 -0.036717
    524     C	-0.7057520030  2.4627752187 -0.9122822092	  C3      1    UNL1	 -0.024623
    525     C	-1.8158976998  2.4627752187 -0.9122822092	  C3      1    UNL1	 -0.024282
    526     C	-2.8161044114  1.9811010528 -0.9122822092	  C3      1    UNL1	 -0.023824
    527     C	-2.8161044114 -1.9194167116 -0.9122822092	  C3      1    UNL1	 -0.034131
    528     C	-1.8158976998 -2.4010908775 -0.9122822092	  C3      1    UNL1	 -0.031272
    529     C	-3.0057520041  2.5017752187  2.2492083261	  C3      1    UNL1	 -0.043488
    530     C	-5.1161044125 -1.8804167116  2.2492083261	  C3      1    UNL1	 -0.044400
    531     C	-4.1158977008 -2.3620908775  2.2492083261	  C3      1    UNL1	 -0.048456
    532     C	-3.0057520041 -2.3620908775  2.2492083261	  C3      1    UNL1	 -0.053697
    533     C	-6.0552995902  1.1030874380  1.2159630587	  C3      1    UNL1	 -0.028832
    534     C	-6.2608248525  0.0698421706  1.2159630587	  C3      1    UNL1	 -0.032639
    535     C	-6.0552995902  0.0698421706  0.1827177913	  C3      1    UNL1	 -0.031246
    536     C	-5.3926776205  0.6077226745 -0.6932252505	  C3      1    UNL1	 -0.028837
    537     C	-0.2870773077 -1.5890260815 -3.7132252519	  C3      1    UNL1	 -0.021571
    538     C	 0.6348955903  2.2371010529 -3.6092822105	  C3      1    UNL1	 -0.022785
    539     C	 1.6351023019 -2.1450908774 -3.6092822105	  C3      1    UNL1	 -0.017311
    540     C	 3.7962865602  1.3190272989 -4.4852252523	  C3      1    UNL1	  0.006913
    541     C	 2.9832806365  2.0235009419 -4.4852252523	  C3      1    UNL1	 -0.008920
    542     C	 1.9184693248  2.1765976958 -4.4852252523	  C3      1    UNL1	 -0.017515
    543     C	 4.2322806371 -2.2628166009 -0.2518486337	  C3      1    UNL1	  0.000444
    544     C	 5.9336498886 -0.5261578297 -1.1277916755	  C3      1    UNL1	  0.015840
    545     C	 5.6866192314 -1.6084698560 -1.1277916755	  C3      1    UNL1	  0.012275
    546     C	 5.3483634600  1.3830304795 -2.1610369429	  C3      1    UNL1	  0.016999
    547     C	 4.4724204182  1.9683169081 -2.1610369429	  C3      1    UNL1	  0.005468
    548     C	 5.3483634600 -2.4353461389 -2.1610369429	  C3      1    UNL1	  0.012738
    549     C	 5.9336498886 -1.5594030970 -2.1610369429	  C3      1    UNL1	  0.020442
    550     C	 4.9944547108 -2.4764167119 -3.1942822103	  C3      1    UNL1	  0.015713
    551     C	 2.1889226934 -1.9690260817 -4.0702252521	  C3      1    UNL1	 -0.009499
    552     C	 3.1674693254 -2.4159133547 -4.0702252521	  C3      1    UNL1	  0.001542
    553     C	 4.2322806371 -2.2628166009 -4.0702252521	  C3      1    UNL1	  0.014019
    554     C	 6.3881751512 -0.3701578296 -2.8970369432	  C3      1    UNL1	  0.025763
    555     C	 6.1407601666  0.6336442220 -2.8970369432	  C3      1    UNL1	  0.024562
    556     C	 5.4551950042  1.4074873207 -2.8970369432	  C3      1    UNL1	  0.020268
    557     C	 6.1407601666 -1.3739598812 -2.8970369432	  C3      1    UNL1	  0.024184
    558     C	 6.0987900234 -0.3701578296 -3.9770369432	  C3      1    UNL1	  0.027164
    559     C	 5.8018365210  0.6411729241 -3.9770369432	  C3      1    UNL1	  0.025612
    560     C	 5.0052566527  1.3314133091 -3.9770369432	  C3      1    UNL1	  0.020205
    561     C	 5.0052566527 -2.0717289683 -3.9770369432	  C3      1    UNL1	  0.020355
    562     C	 5.8018365210 -1.3814885832 -3.9770369432	  C3      1    UNL1	  0.025318
    563     C	 5.3081751512 -0.3701578296 -4.7676518154	  C3      1    UNL1	  0.025269
    564     C	 4.7681751512  0.5651496065 -4.7676518154	  C3      1    UNL1	  0.021660
    565     C	 3.6881751512 -1.3054652657 -4.7676518154	  C3      1    UNL1	  0.014362
    566     C	 4.7681751512 -1.3054652657 -4.7676518154	  C3      1    UNL1	  0.021960
    567     C	 4.2281751512 -0.3701578296 -5.0570369432	  C3      1    UNL1	  0.019432
    568     C	 2.7281751508 -2.5344652663 -0.2024220707	  C3      1    UNL1	 -0.010707
    569     C	 3.8081751508 -2.5344652663 -0.2024220707	  C3      1    UNL1	 -0.002739
    570     C	 2.0431829226 -3.0128742236 -0.9930369428	  C3      1    UNL1	 -0.016305
    571     C	 3.0019588978 -3.4507325401 -0.9930369428	  C3      1    UNL1	 -0.007450
    572     C	 4.0452566522 -3.3007289689 -0.9930369428	  C3      1    UNL1	 -0.001301
    573     C	 4.8418365205 -2.6104885838 -0.9930369428	  C3      1    UNL1	  0.004341
    574     C	 2.5022285947 -3.6187929144 -2.0730369428	  C3      1    UNL1	 -0.009031
    575     C	 3.5285343801 -3.7434089982 -2.0730369428	  C3      1    UNL1	 -0.002526
    576     C	 4.4951950037 -3.3768029805 -2.0730369428	  C3      1    UNL1	  0.003157
    577     C	 5.1807601662 -2.6029598818 -2.0730369428	  C3      1    UNL1	  0.010519
    578     C	 2.0431829226 -3.0128742236 -3.1530369428	  C3      1    UNL1	 -0.011864
    579     C	 3.0019588978 -3.4507325401 -3.1530369428	  C3      1    UNL1	 -0.003860
    580     C	 4.0452566522 -3.3007289689 -3.1530369428	  C3      1    UNL1	  0.003326
    581     C	 4.8418365205 -2.6104885838 -3.1530369428	  C3      1    UNL1	  0.013435
    582     C	 2.7281751508 -2.5344652663 -3.9436518150	  C3      1    UNL1	 -0.003852
    583     C	 3.8081751508 -2.5344652663 -3.9436518150	  C3      1    UNL1	  0.007437
    584     C	 4.8321751510 -0.2021578295  0.7015779298	  C3      1    UNL1	  0.005874
    585     C	 4.2921751510  0.7331496066  0.7015779298	  C3      1    UNL1	  0.002423
    586     C	 4.2921751510 -1.1374652656  0.7015779298	  C3      1    UNL1	  0.004131
    587     C	 5.6227900232 -0.2021578295 -0.0890369424	  C3      1    UNL1	  0.009299
    588     C	 5.3258365208  0.8091729241 -0.0890369424	  C3      1    UNL1	  0.007381
    589     C	 4.5292566524  1.4994133092 -0.0890369424	  C3      1    UNL1	  0.001950
    590     C	 4.5292566524 -1.9037289682 -0.0890369424	  C3      1    UNL1	  0.003077
    591     C	 5.3258365208 -1.2134885831 -0.0890369424	  C3      1    UNL1	  0.007797
    592     C	 5.6647601664  0.8016442221 -1.1690369424	  C3      1    UNL1	  0.013694
    593     C	 4.9791950039  1.5754873208 -1.1690369424	  C3      1    UNL1	  0.007512
    594     C	 3.6588365200  1.1921729243 -4.7360369436	  C3      1    UNL1	  0.005222
    595     C	 2.8622566516  1.8824133094 -4.7360369436	  C3      1    UNL1	 -0.008657
    596     C	 1.8189588972  2.0324168807 -4.7360369436	  C3      1    UNL1	 -0.016122
    597     C	 0.8601829221  1.5945585641 -4.7360369436	  C3      1    UNL1	 -0.018270
    598     C	 0.2903333240  0.7078552815 -4.7360369436	  C3      1    UNL1	 -0.017736
    599     C	 0.2903333240 -0.3461709401 -4.7360369436	  C3      1    UNL1	 -0.017483
    600     C	 0.8601829221 -1.2328742227 -4.7360369436	  C3      1    UNL1	 -0.015805
    601     C	 1.8189588972 -1.6707325393 -4.7360369436	  C3      1    UNL1	 -0.009813
    602     C	 2.8622566516 -1.5207289680 -4.7360369436	  C3      1    UNL1	  0.001582
    603     C	 3.1651751502  0.1808421707 -5.5266518158	  C3      1    UNL1	  0.002430
    604     C	 2.6251751502  1.1161496068 -5.5266518158	  C3      1    UNL1	 -0.005328
    605     C	 1.5451751502  1.1161496068 -5.5266518158	  C3      1    UNL1	 -0.011415
    606     C	 1.0051751502  0.1808421707 -5.5266518158	  C3      1    UNL1	 -0.012177
    607     C	 1.5451751502 -0.7544652654 -5.5266518158	  C3      1    UNL1	 -0.008929
    608     C	 2.6251751502 -0.7544652654 -5.5266518158	  C3      1    UNL1	 -0.001177
    609     C	 2.0851751502  0.1808421707 -5.8160369436	  C3      1    UNL1	 -0.006038
    610     C	 3.9408365201  2.3541729249 -1.2890369430	  C3      1    UNL1	 -0.004556
    611     C	 3.1442566518  3.0444133099 -1.2890369430	  C3      1    UNL1	 -0.010685
    612     C	 2.1009588973  3.1944168812 -1.2890369430	  C3      1    UNL1	 -0.015425
    613     C	 4.2797601657  2.3466442228 -2.3690369430	  C3      1    UNL1	  0.000802
    614     C	 3.5941950033  3.1204873216 -2.3690369430	  C3      1    UNL1	 -0.007434
    615     C	 2.6275343797  3.4870933393 -2.3690369430	  C3      1    UNL1	 -0.012902
    616     C	 1.6012285943  3.3624772554 -2.3690369430	  C3      1    UNL1	 -0.018059
    617     C	 0.7503919343  2.7751871130 -2.3690369430	  C3      1    UNL1	 -0.023557
    618     C	 3.9408365201  2.3541729249 -3.4490369430	  C3      1    UNL1	 -0.000941
    619     C	 3.1442566518  3.0444133099 -3.4490369430	  C3      1    UNL1	 -0.009850
    620     C	 2.1009588973  3.1944168812 -3.4490369430	  C3      1    UNL1	 -0.015906
    621     C	 1.1421829222  2.7565585647 -3.4490369430	  C3      1    UNL1	 -0.021395
    622     C	-0.4118170785 -2.6388742234 -0.7240369427	  C3      1    UNL1	 -0.029777
    623     C	 0.5469588966 -3.0767325400 -0.7240369427	  C3      1    UNL1	 -0.023889
    624     C	 1.5902566510 -2.9267289687 -0.7240369427	  C3      1    UNL1	 -0.019822
    625     C	-0.8036080664 -2.6575027718 -1.8040369427	  C3      1    UNL1	 -0.025708
    626     C	 0.0472285936 -3.2447929142 -1.8040369427	  C3      1    UNL1	 -0.022194
    627     C	 1.0735343790 -3.3694089980 -1.8040369427	  C3      1    UNL1	 -0.018826
    628     C	-0.9816666766 -1.7521709408 -2.8840369427	  C3      1    UNL1	 -0.022887
    629     C	-0.4118170785 -2.6388742234 -2.8840369427	  C3      1    UNL1	 -0.021885
    630     C	 0.5469588966 -3.0767325400 -2.8840369427	  C3      1    UNL1	 -0.019128
    631     C	 1.5902566510 -2.9267289687 -2.8840369427	  C3      1    UNL1	 -0.016446
    632     C	 0.2731751496 -2.1604652661 -3.6746518149	  C3      1    UNL1	 -0.020760
    633     C	 1.3531751496 -2.1604652661 -3.6746518149	  C3      1    UNL1	 -0.018485
    634     C	 0.3585343786  2.4410933388 -2.2970369429	  C3      1    UNL1	 -0.024968
    635     C	-0.6677714067  2.3164772549 -2.2970369429	  C3      1    UNL1	 -0.019299
    636     C	-0.1680411037  2.1484168807 -3.3770369429	  C3      1    UNL1	 -0.018965
    637     C	-1.1268170789  1.7105585642 -3.3770369429	  C3      1    UNL1	 -0.014135
    638     C	-1.6966666769  0.8238552815 -3.3770369429	  C3      1    UNL1	 -0.011211
    639     C	-1.6966666769 -0.2301709401 -3.3770369429	  C3      1    UNL1	 -0.012640
    640     C	-1.1268170789 -1.1168742227 -3.3770369429	  C3      1    UNL1	 -0.018848
    641     C	-0.4418248507  1.2321496068 -4.1676518151	  C3      1    UNL1	 -0.016043
    642     C	-0.9818248507  0.2968421707 -4.1676518151	  C3      1    UNL1	 -0.014426
    643     C	-0.4418248507 -0.6384652654 -4.1676518151	  C3      1    UNL1	 -0.018146
    644     C	 3.0781751502 -0.2561578295  1.9955779304	  C3      1    UNL1	  0.005875
    645     C	 3.8687900223 -0.2561578295  1.2049630582	  C3      1    UNL1	  0.003511
    646     C	 3.5718365199  0.7551729241  1.2049630582	  C3      1    UNL1	 -0.001880
    647     C	 2.7752566516 -1.9577289682  1.2049630582	  C3      1    UNL1	 -0.002059
    648     C	 3.5718365199 -1.2674885832  1.2049630582	  C3      1    UNL1	  0.002529
    649     C	 2.2585343795 -2.4004089976  0.1249630582	  C3      1    UNL1	 -0.012992
    650     C	 3.2251950031 -2.0338029799  0.1249630582	  C3      1    UNL1	 -0.004840
    651     C	 1.9781751499  2.3101496073  1.5575779302	  C3      1    UNL1	 -0.012669
    652     C	 3.0118365197  2.3861729249  0.7669630580	  C3      1    UNL1	 -0.009562
    653     C	 2.2152566513  3.0764133100  0.7669630580	  C3      1    UNL1	 -0.011823
    654     C	 1.1719588969  3.2264168812  0.7669630580	  C3      1    UNL1	 -0.016407
    655     C	 3.3507601653  2.3786442229 -0.3130369420	  C3      1    UNL1	 -0.009114
    656     C	 2.6651950028  3.1524873216 -0.3130369420	  C3      1    UNL1	 -0.011017
    657     C	 1.6985343792  3.5190933393 -0.3130369420	  C3      1    UNL1	 -0.013694
    658     C	 0.6722285939  3.3944772554 -0.3130369420	  C3      1    UNL1	 -0.018145
    659     C	-0.1786080662  2.8071871130 -0.3130369420	  C3      1    UNL1	 -0.024393
    660     C	 1.1719588969  3.2264168812 -1.3930369420	  C3      1    UNL1	 -0.018761
    661     C	 0.2131829218  2.7885585647 -1.3930369420	  C3      1    UNL1	 -0.022877
    662     C	 0.9691751497 -0.3011578296  4.6259630593	  C3      1    UNL1	 -0.004911
    663     C	 2.0491751497 -0.3011578296  4.3365779315	  C3      1    UNL1	  0.001935
    664     C	 1.5091751497  0.6341496065  4.3365779315	  C3      1    UNL1	 -0.004153
    665     C	 0.4291751497 -1.2364652656  4.3365779315	  C3      1    UNL1	 -0.009171
    666     C	 1.5091751497 -1.2364652656  4.3365779315	  C3      1    UNL1	 -0.000711
    667     C	 2.8397900218 -0.3011578296  3.5459630593	  C3      1    UNL1	  0.005427
    668     C	 2.5428365195  0.7101729241  3.5459630593	  C3      1    UNL1	  0.001662
    669     C	 1.7462566511  1.4004133092  3.5459630593	  C3      1    UNL1	 -0.006663
    670     C	 0.7029588967 -2.1527325395  3.5459630593	  C3      1    UNL1	 -0.011729
    671     C	 1.7462566511 -2.0027289683  3.5459630593	  C3      1    UNL1	 -0.001297
    672     C	 2.5428365195 -1.3124885832  3.5459630593	  C3      1    UNL1	  0.004438
    673     C	 3.1291751497 -0.3011578296  2.4659630593	  C3      1    UNL1	  0.006170
    674     C	 2.8817601651  0.7026442221  2.4659630593	  C3      1    UNL1	  0.002140
    675     C	 2.1961950026  1.4764873208  2.4659630593	  C3      1    UNL1	 -0.004996
    676     C	 2.1961950026 -2.0788029799  2.4659630593	  C3      1    UNL1	 -0.000308
    677     C	 2.8817601651 -1.3049598812  2.4659630593	  C3      1    UNL1	  0.005340
    678     C	-1.6478248516 -0.3421578296  5.4359630597	  C3      1    UNL1	 -0.016938
    679     C	-0.5678248516 -0.3421578296  5.1465779319	  C3      1    UNL1	 -0.015386
    680     C	-1.1078248516  0.5931496065  5.1465779319	  C3      1    UNL1	 -0.020508
    681     C	-2.1878248516  0.5931496065  5.1465779319	  C3      1    UNL1	 -0.022548
    682     C	-2.7278248516 -0.3421578296  5.1465779319	  C3      1    UNL1	 -0.021388
    683     C	-2.1878248516 -1.2774652657  5.1465779319	  C3      1    UNL1	 -0.018953
    684     C	-1.1078248516 -1.2774652657  5.1465779319	  C3      1    UNL1	 -0.016121
    685     C	-1.9140411046  1.5094168804  4.3559630597	  C3      1    UNL1	 -0.033845
    686     C	-2.8728170797  1.0715585639  4.3559630597	  C3      1    UNL1	 -0.033368
    687     C	-3.4426666778  0.1848552812  4.3559630597	  C3      1    UNL1	 -0.032606
    688     C	-3.4426666778 -0.8691709404  4.3559630597	  C3      1    UNL1	 -0.030903
    689     C	-2.8728170797 -1.7558742230  4.3559630597	  C3      1    UNL1	 -0.027878
    690     C	-1.9140411046 -2.1937325395  4.3559630597	  C3      1    UNL1	 -0.024973
    691     C	-0.8707433501 -2.0437289683  4.3559630597	  C3      1    UNL1	 -0.021456
    692     C	-3.2646080676 -1.7745027714  3.2759630597	  C3      1    UNL1	 -0.046211
    693     C	-1.8520411045  1.9554168806 -1.9860369423	  C3      1    UNL1	 -0.014853
    694     C	-2.8108170797  1.5175585641 -1.9860369423	  C3      1    UNL1	 -0.014195
    695     C	-3.3806666777  0.6308552814 -1.9860369423	  C3      1    UNL1	 -0.016013
    696     C	-3.3806666777 -0.4231709402 -1.9860369423	  C3      1    UNL1	 -0.018433
    697     C	-2.8108170797 -1.3098742228 -1.9860369423	  C3      1    UNL1	 -0.019486
    698     C	-1.8520411045 -1.7477325393 -1.9860369423	  C3      1    UNL1	 -0.021390
    699     C	-2.1258248515  1.0391496067 -2.7766518145	  C3      1    UNL1	 -0.009394
    700     C	-2.6658248515  0.1038421706 -2.7766518145	  C3      1    UNL1	 -0.010335
    701     C	-2.1258248515 -0.8314652654 -2.7766518145	  C3      1    UNL1	 -0.013076
    702     C	-3.1377433512  2.7434133098  1.9499630586	  C3      1    UNL1	 -0.038409
    703     C	-4.1810411056  2.8934168811  1.9499630586	  C3      1    UNL1	 -0.029144
    704     C	-5.1398170808  2.4555585645  1.9499630586	  C3      1    UNL1	 -0.027011
    705     C	-5.7096666788  1.5688552819  1.9499630586	  C3      1    UNL1	 -0.029984
    706     C	-2.6878049997  2.8194873214  0.8699630586	  C3      1    UNL1	 -0.036047
    707     C	-3.6544656233  3.1860933391  0.8699630586	  C3      1    UNL1	 -0.025938
    708     C	-4.6807714086  3.0614772553  0.8699630586	  C3      1    UNL1	 -0.021827
    709     C	-5.5316080687  2.4741871129  0.8699630586	  C3      1    UNL1	 -0.021792
    710     C	-6.0120591783  1.5587640059  0.8699630586	  C3      1    UNL1	 -0.025167
    711     C	-3.1377433512  2.7434133098 -0.2100369414	  C3      1    UNL1	 -0.025823
    712     C	-4.1810411056  2.8934168811 -0.2100369414	  C3      1    UNL1	 -0.020728
    713     C	-5.1398170808  2.4555585645 -0.2100369414	  C3      1    UNL1	 -0.019910
    714     C	-5.7096666788  1.5688552819 -0.2100369414	  C3      1    UNL1	 -0.023065
    715     C	-3.3748248526  1.9771496072 -1.0006518136	  C3      1    UNL1	 -0.022666
    716     C	-4.4548248526  1.9771496072 -1.0006518136	  C3      1    UNL1	 -0.021276
    717     C	-4.9948248526  1.0418421711 -1.0006518136	  C3      1    UNL1	 -0.025770
    718     C	-3.9148248526  1.0418421711 -1.2900369414	  C3      1    UNL1	 -0.024519
    719     C	-3.9818248527  0.0168421706  4.3799630592	  C3      1    UNL1	 -0.032649
    720     C	-3.4418248527  0.9521496067  4.0905779314	  C3      1    UNL1	 -0.037021
    721     C	-4.5218248527  0.9521496067  4.0905779314	  C3      1    UNL1	 -0.032852
    722     C	-5.0618248527  0.0168421706  4.0905779314	  C3      1    UNL1	 -0.031606
    723     C	-4.5218248527 -0.9184652655  4.0905779314	  C3      1    UNL1	 -0.034068
    724     C	-4.2480411057  1.8684168806  3.2999630592	  C3      1    UNL1	 -0.036941
    725     C	-5.2068170808  1.4305585640  3.2999630592	  C3      1    UNL1	 -0.032545
    726     C	-5.7766666789  0.5438552814  3.2999630592	  C3      1    UNL1	 -0.031541
    727     C	-5.7766666789 -0.5101709402  3.2999630592	  C3      1    UNL1	 -0.033244
    728     C	-5.2068170808 -1.3968742228  3.2999630592	  C3      1    UNL1	 -0.037090
    729     C	-4.2480411057 -1.8347325394  3.2999630592	  C3      1    UNL1	 -0.042079
    730     C	-6.0790591783  0.5337640055  2.2199630592	  C3      1    UNL1	 -0.033016
    731     C	-6.0790591783 -0.5000796643  2.2199630592	  C3      1    UNL1	 -0.036000
    732     C	-5.5986080687 -1.4155027712  2.2199630592	  C3      1    UNL1	 -0.041220
    733     C	-5.2518170808 -2.0918742232  1.6549630584	  C3      1    UNL1	 -0.042047
    734     C	-4.2930411057 -2.5297325397  1.6549630584	  C3      1    UNL1	 -0.046698
    735     C	-6.1240591783 -1.1950796646  0.5749630584	  C3      1    UNL1	 -0.033118
    736     C	-5.6436080687 -2.1105027715  0.5749630584	  C3      1    UNL1	 -0.034022
    737     C	-4.7927714087 -2.6977929139  0.5749630584	  C3      1    UNL1	 -0.036620
    738     C	-3.7664656233 -2.8224089978  0.5749630584	  C3      1    UNL1	 -0.041663
    739     C	-2.7998049997 -2.4558029801  0.5749630584	  C3      1    UNL1	 -0.050532
    740     C	-5.8216666789 -0.1511447189 -0.5050369416	  C3      1    UNL1	 -0.029965
    741     C	-5.8216666789 -1.2051709405 -0.5050369416	  C3      1    UNL1	 -0.029580
    742     C	-5.2518170808 -2.0918742232 -0.5050369416	  C3      1    UNL1	 -0.030409
    743     C	-4.2930411057 -2.5297325397 -0.5050369416	  C3      1    UNL1	 -0.033102
    744     C	-3.2497433512 -2.3797289684 -0.5050369416	  C3      1    UNL1	 -0.037563
    745     C	-4.5668248527  0.2571496064 -1.2956518138	  C3      1    UNL1	 -0.029046
    746     C	-5.1068248527 -0.6781578297 -1.2956518138	  C3      1    UNL1	 -0.028403
    747     C	-4.5668248527 -1.6134652658 -1.2956518138	  C3      1    UNL1	 -0.028922
    748     C	-3.4868248527 -1.6134652658 -1.2956518138	  C3      1    UNL1	 -0.030242
    749     C	-4.0268248527 -0.6781578297 -1.5850369416	  C3      1    UNL1	 -0.027225
    750     C	 0.3187749365  3.0666623809  1.0509075914	  C3      1    UNL1	 -0.023156
    751     C	-0.7623411538  2.9664822220  1.0509075914	  C3      1    UNL1	 -0.032420
    752     C	 0.3187749365 -2.8169780396  0.0090185254	  C3      1    UNL1	 -0.026293
    753     C	 2.8174171923  1.3553938270  1.9540963873	  C3      1    UNL1	 -0.004683
    754     C	 3.5686358713  1.3695749674  1.1559630580	  C3      1    UNL1	 -0.004792
    755     C	 1.4677749371 -2.6289780395  0.1769075910	  C3      1    UNL1	 -0.018753
    756     C	 0.6052053642  0.7804365687  4.6860409214	  C3      1    UNL1	 -0.013630
    757     C	 0.8932460190  1.6459426985  4.1650963884	  C3      1    UNL1	 -0.015950
    758     C	 1.8306274599  1.8225890632  3.3669630590	  C3      1    UNL1	 -0.009367
    759     C	 0.8950248512  2.3627594812  3.3669630590	  C3      1    UNL1	 -0.019551
    760     C	-0.1793977646  2.4756858486  3.3669630590	  C3      1    UNL1	 -0.031155
    761     C	 0.8950248512 -2.5790751401  3.3669630590	  C3      1    UNL1	 -0.012319
    762     C	 2.2755202829  1.8822242496  2.3879075920	  C3      1    UNL1	 -0.008032
    763     C	 1.4090749150  2.5365334192  2.3879075920	  C3      1    UNL1	 -0.016025
    764     C	 0.3647749365  2.8336623808  2.3879075920	  C3      1    UNL1	 -0.025585
    765     C	 0.3647749365 -3.0499780397  2.3879075920	  C3      1    UNL1	 -0.022039
    766     C	 1.4090749150 -2.7528490781  2.3879075920	  C3      1    UNL1	 -0.010767
    767     C	 0.3647749365 -3.0499780397  1.3460185260	  C3      1    UNL1	 -0.024030
    768     C	 1.4090749150 -2.7528490781  1.3460185260	  C3      1    UNL1	 -0.014004
    769     C	-0.3937539816  1.5969426985  4.6110963886	  C3      1    UNL1	 -0.024955
    770     C	-1.4692594955  1.7515770464  4.6110963886	  C3      1    UNL1	 -0.029379
    771     C	-0.3937539816 -1.9112583574  4.6110963886	  C3      1    UNL1	 -0.017113
    772     C	-0.3919751494  2.3137594812  3.8129630592	  C3      1    UNL1	 -0.030639
    773     C	-1.4663977652  2.4266858485  3.8129630592	  C3      1    UNL1	 -0.035228
    774     C	-2.4938629570  2.0928421705  3.8129630592	  C3      1    UNL1	 -0.037988
    775     C	-1.4663977652 -2.7410015075  3.8129630592	  C3      1    UNL1	 -0.028413
    776     C	-0.3919751494 -2.6280751401  3.8129630592	  C3      1    UNL1	 -0.022796
    777     C	-0.9222250641  2.7846623808  2.8339075922	  C3      1    UNL1	 -0.037056
    778     C	-2.0033411544  2.6844822218  2.8339075922	  C3      1    UNL1	 -0.041757
    779     C	-2.9752626378 -2.5148384869  2.8339075922	  C3      1    UNL1	 -0.044368
    780     C	-2.0033411544 -2.9987978808  2.8339075922	  C3      1    UNL1	 -0.037638
    781     C	-0.9222250641 -3.0989780397  2.8339075922	  C3      1    UNL1	 -0.031897
    782     C	-2.0033411544 -2.9987978808  1.7920185262	  C3      1    UNL1	 -0.043255
    783     C	-0.9222250641 -3.0989780397  1.7920185262	  C3      1    UNL1	 -0.036120
    784     C	-2.3363977656  2.7066858487  2.7149630587	  C3      1    UNL1	 -0.041500
    785     C	-1.7922250645  3.0646623809  1.7359075917	  C3      1    UNL1	 -0.038110
    786     C	-1.7922250645  3.0646623809  0.6940185257	  C3      1    UNL1	 -0.033900
    787     C	-0.9882250641  2.9726623809  0.6419075912	  C3      1    UNL1	 -0.031836
    788     C	-0.9882250641 -2.9109780397  0.6419075912	  C3      1    UNL1	 -0.035707
    789     C	-0.9882250641  2.9726623809 -0.3999814748	  C3      1    UNL1	 -0.025709
    790     C	-2.0693411544  2.8724822219 -0.3999814748	  C3      1    UNL1	 -0.027155
    791     C	-2.0693411544 -2.8107978807 -0.3999814748	  C3      1    UNL1	 -0.034131
    792     C	-0.9882250641 -2.9109780397 -0.3999814748	  C3      1    UNL1	 -0.030558
    793     C	-1.5323977652  2.6146858486 -1.3790369418	  C3      1    UNL1	 -0.020791
    794     C	-2.5598629571  2.2808421706 -1.3790369418	  C3      1    UNL1	 -0.019931
    795     C	-2.5598629571 -2.2191578294 -1.3790369418	  C3      1    UNL1	 -0.027606
    796     C	-1.5323977652 -2.5530015074 -1.3790369418	  C3      1    UNL1	 -0.027161
    797     C	-3.8323977663  2.6536858487  2.7159630587	  C3      1    UNL1	 -0.034322
    798     C	-4.8598629581  2.3198421706  2.7159630587	  C3      1    UNL1	 -0.030804
    799     C	-4.8598629581 -2.1801578294  2.7159630587	  C3      1    UNL1	 -0.040284
    800     C	-3.8323977663 -2.5140015074  2.7159630587	  C3      1    UNL1	 -0.043260
    801     C	-6.4649434412  0.6127160199  1.7369075917	  C3      1    UNL1	 -0.029140
    802     C	-6.4649434412 -0.4730316786  1.7369075917	  C3      1    UNL1	 -0.031963
    803     C	-6.0727261335 -1.4854612557  1.7369075917	  C3      1    UNL1	 -0.035265
    804     C	-4.3693411555 -2.7717978807  1.7369075917	  C3      1    UNL1	 -0.041757
    805     C	-3.2882250652 -2.8719780396  1.7369075917	  C3      1    UNL1	 -0.045411
    806     C	-6.4649434412  0.6127160199  0.6950185257	  C3      1    UNL1	 -0.027396
    807     C	-6.4649434412 -0.4730316786  0.6950185257	  C3      1    UNL1	 -0.030413
    808     C	-6.1021268651  0.6100125886 -0.2840369413	  C3      1    UNL1	 -0.026498
    809     C	-5.4110754375  0.6131247610 -1.0821702706	  C3      1    UNL1	 -0.026018
    810     C	-4.0738550675  0.9584365688 -1.6031148036	  C3      1    UNL1	 -0.022490
    811     C	-1.1387126580 -1.6732687108 -3.3040369427	  C3      1    UNL1	 -0.019945
    812     C	-0.2996339479 -1.6035172167 -4.1021702721	  C3      1    UNL1	 -0.018817
    813     C	 0.6887405055 -2.0548927054 -4.1021702721	  C3      1    UNL1	 -0.017961
    814     C	 0.4097373638  2.6445228281 -3.0969814761	  C3      1    UNL1	 -0.021341
    815     C	 3.9286274609  2.2175890634 -4.0760369431	  C3      1    UNL1	  0.000325
    816     C	 0.8911370446  2.5368421707 -4.0760369431	  C3      1    UNL1	 -0.019059
    817     C	 1.9186022364 -2.2970015073 -4.0760369431	  C3      1    UNL1	 -0.011198
    818     C	 3.8124171928  1.3293938270 -4.8741702724	  C3      1    UNL1	  0.005092
    819     C	 2.9912460200  2.0409426987 -4.8741702724	  C3      1    UNL1	 -0.006923
    820     C	 4.2402460205 -2.2802583576  0.1370963865	  C3      1    UNL1	  0.000023
    821     C	 5.1776274615 -2.4569047223 -0.6610369429	  C3      1    UNL1	  0.004613
    822     C	 5.8126358723 -1.5828906263 -0.6610369429	  C3      1    UNL1	  0.008957
    823     C	 6.3935984099 -0.5261578297 -1.6400924099	  C3      1    UNL1	  0.016833
    824     C	 6.1940927938  0.5411029511 -1.6400924099	  C3      1    UNL1	  0.016105
    825     C	 5.6225202845  1.4642242494 -1.6400924099	  C3      1    UNL1	  0.011607
    826     C	 4.7560749166  2.1185334190 -1.6400924099	  C3      1    UNL1	  0.003881
    827     C	 5.6225202845 -2.5165399088 -1.6400924099	  C3      1    UNL1	  0.009154
    828     C	 6.1940927938 -1.5934186104 -1.6400924099	  C3      1    UNL1	  0.014052
    829     C	 4.7560749166  2.1185334190 -2.6819814759	  C3      1    UNL1	  0.007515
    830     C	 5.6225202845 -2.5165399088 -2.6819814759	  C3      1    UNL1	  0.013387
    831     C	 5.1776274615 -2.4569047223 -3.6610369429	  C3      1    UNL1	  0.015351
    832     C	 3.1647405067 -2.4348927056 -4.4591702722	  C3      1    UNL1	  0.001449
    833     C	 4.2402460205 -2.2802583576 -4.4591702722	  C3      1    UNL1	  0.011571
    834     C	 6.5680021405 -0.3701578296 -2.3629867017	  C3      1    UNL1	  0.020162
    835     C	 6.3362864248  0.6450550534 -2.3629867017	  C3      1    UNL1	  0.019180
    836     C	 5.6870334171  1.4591925741 -2.3629867017	  C3      1    UNL1	  0.015804
    837     C	 6.3362864248 -1.3853707126 -2.3629867017	  C3      1    UNL1	  0.019007
    838     C	 6.5680021405 -0.3701578296 -3.4310871847	  C3      1    UNL1	  0.022019
    839     C	 6.3362864248  0.6450550534 -3.4310871847	  C3      1    UNL1	  0.021055
    840     C	 5.6870334171  1.4591925741 -3.4310871847	  C3      1    UNL1	  0.017738
    841     C	 4.7488356382  1.9110048119 -3.4310871847	  C3      1    UNL1	  0.011277
    842     C	 5.6870334171 -2.1995082333 -3.4310871847	  C3      1    UNL1	  0.017738
    843     C	 6.3362864248 -1.3853707126 -3.4310871847	  C3      1    UNL1	  0.020887
    844     C	 6.1045707091 -0.3701578296 -4.3934124677	  C3      1    UNL1	  0.022084
    845     C	 5.8066995433  0.6442981987 -4.3934124677	  C3      1    UNL1	  0.020687
    846     C	 5.0076580363  1.3366716058 -4.3934124677	  C3      1    UNL1	  0.016092
    847     C	 5.0076580363 -2.0769872650 -4.3934124677	  C3      1    UNL1	  0.016726
    848     C	 5.8066995433 -1.3846138579 -4.3934124677	  C3      1    UNL1	  0.020674
    849     C	 5.2694961251 -0.3701578296 -5.0593622262	  C3      1    UNL1	  0.019887
    850     C	 4.7488356382  0.5316525873 -5.0593622262	  C3      1    UNL1	  0.016861
    851     C	 3.7075146643 -1.2719682465 -5.0593622262	  C3      1    UNL1	  0.011277
    852     C	 4.7488356382 -1.2719682465 -5.0593622262	  C3      1    UNL1	  0.017350
    853     C	 4.2281751512 -0.3701578296 -5.2970369432	  C3      1    UNL1	  0.015008
    854     C	 3.7888356377 -2.5009682470  0.0892883401	  C3      1    UNL1	 -0.002719
    855     C	 2.0393973785 -3.0172429744 -0.5766614184	  C3      1    UNL1	 -0.015782
    856     C	 3.0011362204 -3.4564543868 -0.5766614184	  C3      1    UNL1	 -0.007883
    857     C	 4.0476580359 -3.3059872656 -0.5766614184	  C3      1    UNL1	 -0.002232
    858     C	 1.8093168849 -3.4285082339 -1.5389867013	  C3      1    UNL1	 -0.015283
    859     C	 2.7475146638 -3.8803204716 -1.5389867013	  C3      1    UNL1	 -0.008058
    860     C	 3.7888356377 -3.8803204716 -1.5389867013	  C3      1    UNL1	 -0.002639
    861     C	 4.7270334167 -3.4285082339 -1.5389867013	  C3      1    UNL1	  0.002196
    862     C	 1.8093168849 -3.4285082339 -2.6070871843	  C3      1    UNL1	 -0.013258
    863     C	 2.7475146638 -3.8803204716 -2.6070871843	  C3      1    UNL1	 -0.006514
    864     C	 3.7888356377 -3.8803204716 -2.6070871843	  C3      1    UNL1	 -0.001016
    865     C	 4.7270334167 -3.4285082339 -2.6070871843	  C3      1    UNL1	  0.004560
    866     C	 2.0393973785 -3.0172429744 -3.5694124673	  C3      1    UNL1	 -0.010410
    867     C	 3.0011362204 -3.4564543868 -3.5694124673	  C3      1    UNL1	 -0.003422
    868     C	 4.0476580359 -3.3059872656 -3.5694124673	  C3      1    UNL1	  0.003406
    869     C	 4.7934961249 -0.2021578295  0.9932883406	  C3      1    UNL1	  0.004223
    870     C	 4.2728356379  0.6996525874  0.9932883406	  C3      1    UNL1	  0.001352
    871     C	 4.2728356379 -1.1039682464  0.9932883406	  C3      1    UNL1	  0.003290
    872     C	 5.6285707089 -0.2021578295  0.3273385821	  C3      1    UNL1	  0.006700
    873     C	 5.3306995431  0.8122981988  0.3273385821	  C3      1    UNL1	  0.005041
    874     C	 4.5316580361  1.5046716059  0.3273385821	  C3      1    UNL1	  0.000515
    875     C	 4.5316580361 -1.9089872649  0.3273385821	  C3      1    UNL1	  0.002159
    876     C	 5.3306995431 -1.2166138578  0.3273385821	  C3      1    UNL1	  0.005632
    877     C	 6.0920021402 -0.2021578295 -0.6349867009	  C3      1    UNL1	  0.011041
    878     C	 5.8602864246  0.8130550535 -0.6349867009	  C3      1    UNL1	  0.009302
    879     C	 5.2110334169  1.6271925742 -0.6349867009	  C3      1    UNL1	  0.005120
    880     C	 4.2728356379  2.0790048120 -0.6349867009	  C3      1    UNL1	 -0.001629
    881     C	 3.6636995423  1.1952981990 -5.1524124680	  C3      1    UNL1	  0.003493
    882     C	 2.8646580353  1.8876716061 -5.1524124680	  C3      1    UNL1	 -0.006636
    883     C	 1.8181362198  2.0381387274 -5.1524124680	  C3      1    UNL1	 -0.012730
    884     C	 0.8563973780  1.5989273149 -5.1524124680	  C3      1    UNL1	 -0.015033
    885     C	 0.2847867967  0.7094838889 -5.1524124680	  C3      1    UNL1	 -0.015158
    886     C	 0.2847867967 -0.3477995475 -5.1524124680	  C3      1    UNL1	 -0.014812
    887     C	 0.8563973780 -1.2372429735 -5.1524124680	  C3      1    UNL1	 -0.013020
    888     C	 1.8181362198 -1.6764543860 -5.1524124680	  C3      1    UNL1	 -0.007977
    889     C	 2.8646580353 -1.5259872648 -5.1524124680	  C3      1    UNL1	  0.000832
    890     C	 3.1264961241  0.1808421707 -5.8183622266	  C3      1    UNL1	  0.001003
    891     C	 2.6058356371  1.0826525876 -5.8183622266	  C3      1    UNL1	 -0.004806
    892     C	 1.5645146633  1.0826525876 -5.8183622266	  C3      1    UNL1	 -0.009847
    893     C	 1.0438541763  0.1808421707 -5.8183622266	  C3      1    UNL1	 -0.010688
    894     C	 1.5645146633 -0.7209682462 -5.8183622266	  C3      1    UNL1	 -0.007938
    895     C	 2.6058356371 -0.7209682462 -5.8183622266	  C3      1    UNL1	 -0.001735
    896     C	 2.0851751502  0.1808421707 -6.0560369436	  C3      1    UNL1	 -0.005703
    897     C	 3.9456995424  2.3572981995 -0.8726614185	  C3      1    UNL1	 -0.004839
    898     C	 3.1466580354  3.0496716067 -0.8726614185	  C3      1    UNL1	 -0.010194
    899     C	 4.4752864239  2.3580550542 -1.8349867015	  C3      1    UNL1	  0.000949
    900     C	 3.8260334162  3.1721925749 -1.8349867015	  C3      1    UNL1	 -0.006245
    901     C	 2.8878356373  3.6240048127 -1.8349867015	  C3      1    UNL1	 -0.011125
    902     C	 1.8465146634  3.6240048127 -1.8349867015	  C3      1    UNL1	 -0.015527
    903     C	 0.9083168844  3.1721925749 -1.8349867015	  C3      1    UNL1	 -0.020412
    904     C	 4.4752864239  2.3580550542 -2.9030871845	  C3      1    UNL1	  0.003466
    905     C	 3.8260334162  3.1721925749 -2.9030871845	  C3      1    UNL1	 -0.005357
    906     C	 2.8878356373  3.6240048127 -2.9030871845	  C3      1    UNL1	 -0.010767
    907     C	 1.8465146634  3.6240048127 -2.9030871845	  C3      1    UNL1	 -0.015272
    908     C	 0.9083168844  3.1721925749 -2.9030871845	  C3      1    UNL1	 -0.019564
    909     C	 3.9456995424  2.3572981995 -3.8654124674	  C3      1    UNL1	 -0.000513
    910     C	 3.1466580354  3.0496716067 -3.8654124674	  C3      1    UNL1	 -0.008888
    911     C	 2.1001362200  3.2001387279 -3.8654124674	  C3      1    UNL1	 -0.014472
    912     C	 0.5461362192 -3.0824543867 -0.3076614182	  C3      1    UNL1	 -0.023729
    913     C	 1.5926580347 -2.9319872654 -0.3076614182	  C3      1    UNL1	 -0.018661
    914     C	-0.6456831163 -3.0545082337 -1.2699867012	  C3      1    UNL1	 -0.025657
    915     C	 0.2925146627 -3.5063204715 -1.2699867012	  C3      1    UNL1	 -0.021330
    916     C	 1.3338356365 -3.5063204715 -1.2699867012	  C3      1    UNL1	 -0.017627
    917     C	-1.2949361240 -2.2403707130 -2.3380871842	  C3      1    UNL1	 -0.023156
    918     C	-0.6456831163 -3.0545082337 -2.3380871842	  C3      1    UNL1	 -0.021832
    919     C	 0.2925146627 -3.5063204715 -2.3380871842	  C3      1    UNL1	 -0.018925
    920     C	 1.3338356365 -3.5063204715 -2.3380871842	  C3      1    UNL1	 -0.015922
    921     C	-0.4156026226 -2.6432429742 -3.3004124672	  C3      1    UNL1	 -0.019886
    922     C	 0.5461362192 -3.0824543867 -3.3004124672	  C3      1    UNL1	 -0.017481
    923     C	 1.5926580347 -2.9319872654 -3.3004124672	  C3      1    UNL1	 -0.014652
    924     C	 0.2925146627 -2.1269682469 -3.9663622257	  C3      1    UNL1	 -0.018875
    925     C	-0.4224853377  2.5780048122 -1.7629867014	  C3      1    UNL1	 -0.021828
    926     C	-0.4224853377  2.5780048122 -2.8310871844	  C3      1    UNL1	 -0.018656
    927     C	-1.3606831166  2.1261925744 -2.8310871844	  C3      1    UNL1	 -0.015011
    928     C	-0.1688637811  2.1541387274 -3.7934124674	  C3      1    UNL1	 -0.017755
    929     C	-1.1306026230  1.7149273150 -3.7934124674	  C3      1    UNL1	 -0.014190
    930     C	-1.7022132043  0.8254838889 -3.7934124674	  C3      1    UNL1	 -0.012461
    931     C	-1.7022132043 -0.2317995474 -3.7934124674	  C3      1    UNL1	 -0.013616
    932     C	-1.1306026230 -1.1212429735 -3.7934124674	  C3      1    UNL1	 -0.017493
    933     C	-0.4224853377  1.1986525876 -4.4593622259	  C3      1    UNL1	 -0.015681
    934     C	-0.9431458246  0.2968421707 -4.4593622259	  C3      1    UNL1	 -0.014494
    935     C	-0.4224853377 -0.6049682461 -4.4593622259	  C3      1    UNL1	 -0.016960
    936     C	 3.8745707081 -0.2561578295  1.6213385827	  C3      1    UNL1	  0.002655
    937     C	 3.5766995423  0.7582981988  1.6213385827	  C3      1    UNL1	 -0.001197
    938     C	 2.7776580353 -1.9629872650  1.6213385827	  C3      1    UNL1	 -0.000921
    939     C	 3.5766995423 -1.2706138578  1.6213385827	  C3      1    UNL1	  0.002322
    940     C	 1.4775146632 -2.5373204710  0.6590132997	  C3      1    UNL1	 -0.016063
    941     C	 2.5188356371 -2.5373204710  0.6590132997	  C3      1    UNL1	 -0.008364
    942     C	 3.4570334161 -2.0855082332  0.6590132997	  C3      1    UNL1	 -0.002139
    943     C	 1.9588356368  2.2766525881  1.8492883410	  C3      1    UNL1	 -0.012232
    944     C	 3.0166995420  2.3892981995  1.1833385825	  C3      1    UNL1	 -0.008963
    945     C	 2.2176580350  3.0816716067  1.1833385825	  C3      1    UNL1	 -0.011962
    946     C	 1.1711362195  3.2321387279  1.1833385825	  C3      1    UNL1	 -0.016945
    947     C	 3.5462864235  2.3900550542  0.2210132995	  C3      1    UNL1	 -0.007451
    948     C	 2.8970334158  3.2041925750  0.2210132995	  C3      1    UNL1	 -0.009851
    949     C	 1.9588356368  3.6560048127  0.2210132995	  C3      1    UNL1	 -0.012602
    950     C	 0.9175146630  3.6560048127  0.2210132995	  C3      1    UNL1	 -0.016722
    951     C	-0.0206831160  3.2041925750  0.2210132995	  C3      1    UNL1	 -0.022983
    952     C	 2.8970334158  3.2041925750 -0.8470871835	  C3      1    UNL1	 -0.011077
    953     C	 1.9588356368  3.6560048127 -0.8470871835	  C3      1    UNL1	 -0.013601
    954     C	 0.9175146630  3.6560048127 -0.8470871835	  C3      1    UNL1	 -0.016902
    955     C	-0.0206831160  3.2041925750 -0.8470871835	  C3      1    UNL1	 -0.021186
    956     C	 0.2093973777  2.7929273155 -1.8094124665	  C3      1    UNL1	 -0.022646
    957     C	 0.9691751497 -0.3011578296  4.8659630593	  C3      1    UNL1	 -0.006618
    958     C	 2.0104961236 -0.3011578296  4.6282883423	  C3      1    UNL1	 -0.000988
    959     C	 1.4898356366  0.6006525873  4.6282883423	  C3      1    UNL1	 -0.005815
    960     C	 1.4898356366 -1.2029682464  4.6282883423	  C3      1    UNL1	 -0.003091
    961     C	 2.8455707076 -0.3011578296  3.9623385838	  C3      1    UNL1	  0.002427
    962     C	 2.5476995418  0.7132981988  3.9623385838	  C3      1    UNL1	 -0.000642
    963     C	 1.7486580348  1.4056716059  3.9623385838	  C3      1    UNL1	 -0.007495
    964     C	 1.7486580348 -2.0079872650  3.9623385838	  C3      1    UNL1	 -0.003000
    965     C	 2.5476995418 -1.3156138579  3.9623385838	  C3      1    UNL1	  0.001614
    966     C	 3.3090021389 -0.3011578296  3.0000133008	  C3      1    UNL1	  0.003990
    967     C	 3.0772864233  0.7140550534  3.0000133008	  C3      1    UNL1	  0.001153
    968     C	 2.4280334156  1.5281925742  3.0000133008	  C3      1    UNL1	 -0.004474
    969     C	 1.4898356366 -2.5823204710  3.0000133008	  C3      1    UNL1	 -0.007754
    970     C	 2.4280334156 -2.1305082333  3.0000133008	  C3      1    UNL1	 -0.000524
    971     C	 3.0772864233 -1.3163707125  3.0000133008	  C3      1    UNL1	  0.003428
    972     C	 2.4280334156 -2.1305082333  1.9319128178	  C3      1    UNL1	 -0.001857
    973     C	-1.6478248516 -0.3421578296  5.6759630597	  C3      1    UNL1	 -0.016892
    974     C	-0.6065038777 -0.3421578296  5.4382883427	  C3      1    UNL1	 -0.015072
    975     C	-1.1271643646  0.5596525873  5.4382883427	  C3      1    UNL1	 -0.018936
    976     C	-2.1684853385  0.5596525873  5.4382883427	  C3      1    UNL1	 -0.021034
    977     C	-2.6891458254 -0.3421578296  5.4382883427	  C3      1    UNL1	 -0.020430
    978     C	-2.1684853385 -1.2439682464  5.4382883427	  C3      1    UNL1	 -0.018362
    979     C	-1.1271643646 -1.2439682464  5.4382883427	  C3      1    UNL1	 -0.015756
    980     C	-1.9148637819  1.5151387271  4.7723385842	  C3      1    UNL1	 -0.028255
    981     C	-2.8766026238  1.0759273147  4.7723385842	  C3      1    UNL1	 -0.028517
    982     C	-3.4482132051  0.1864838886  4.7723385842	  C3      1    UNL1	 -0.028089
    983     C	-3.4482132051 -0.8707995477  4.7723385842	  C3      1    UNL1	 -0.026764
    984     C	-2.8766026238 -1.7602429738  4.7723385842	  C3      1    UNL1	 -0.024404
    985     C	-1.9148637819 -2.1994543863  4.7723385842	  C3      1    UNL1	 -0.021761
    986     C	-0.8683419665 -2.0489872650  4.7723385842	  C3      1    UNL1	 -0.018495
    987     C	-3.1066831175 -2.1715082333  3.8100133012	  C3      1    UNL1	 -0.034405
    988     C	-2.1684853385 -2.6233204711  3.8100133012	  C3      1    UNL1	 -0.030840
    989     C	-3.0446831174  1.9331925744 -1.4400871838	  C3      1    UNL1	 -0.019462
    990     C	-1.8528637819  1.9611387273 -2.4024124667	  C3      1    UNL1	 -0.014062
    991     C	-2.8146026238  1.5219273149 -2.4024124667	  C3      1    UNL1	 -0.013542
    992     C	-3.3862132051  0.6324838888 -2.4024124667	  C3      1    UNL1	 -0.014858
    993     C	-3.3862132051 -0.4247995475 -2.4024124667	  C3      1    UNL1	 -0.016666
    994     C	-2.8146026238 -1.3142429736 -2.4024124667	  C3      1    UNL1	 -0.017819
    995     C	-1.8528637819 -1.7534543860 -2.4024124667	  C3      1    UNL1	 -0.019931
    996     C	-2.1064853385  1.0056525875 -3.0683622253	  C3      1    UNL1	 -0.010668
    997     C	-2.6271458254  0.1038421706 -3.0683622253	  C3      1    UNL1	 -0.011511
    998     C	-2.1064853385 -0.7979682462 -3.0683622253	  C3      1    UNL1	 -0.013820
    999     C	-4.1818637830  2.8991387278  2.3663385830	  C3      1    UNL1	 -0.030017
   1000     C	-5.1436026249  2.4599273153  2.3663385830	  C3      1    UNL1	 -0.027953
   1001     C	-3.3941643657  3.3230048126  1.4040133000	  C3      1    UNL1	 -0.028738
   1002     C	-4.4354853396  3.3230048126  1.4040133000	  C3      1    UNL1	 -0.023833
   1003     C	-5.3736831185  2.8711925748  1.4040133000	  C3      1    UNL1	 -0.022566
   1004     C	-6.0229361262  2.0570550541  1.4040133000	  C3      1    UNL1	 -0.024138
   1005     C	-3.3941643657  3.3230048126  0.3359128171	  C3      1    UNL1	 -0.024596
   1006     C	-4.4354853396  3.3230048126  0.3359128171	  C3      1    UNL1	 -0.020753
   1007     C	-5.3736831185  2.8711925748  0.3359128171	  C3      1    UNL1	 -0.019897
   1008     C	-6.0229361262  2.0570550541  0.3359128171	  C3      1    UNL1	 -0.021576
   1009     C	-3.1353419675  2.7486716065 -0.6264124659	  C3      1    UNL1	 -0.023476
   1010     C	-4.1818637830  2.8991387278 -0.6264124659	  C3      1    UNL1	 -0.020082
   1011     C	-5.1436026249  2.4599273153 -0.6264124659	  C3      1    UNL1	 -0.019611
   1012     C	-5.7152132062  1.5704838893 -0.6264124659	  C3      1    UNL1	 -0.022171
   1013     C	-3.3941643657  1.9436525880 -1.2923622244	  C3      1    UNL1	 -0.020874
   1014     C	-4.4354853396  1.9436525880 -1.2923622244	  C3      1    UNL1	 -0.020666
   1015     C	-4.9561458265  1.0418421711 -1.2923622244	  C3      1    UNL1	 -0.024109
   1016     C	-3.9818248527  0.0168421706  4.6199630592	  C3      1    UNL1	 -0.030024
   1017     C	-3.4611643657  0.9186525875  4.3822883422	  C3      1    UNL1	 -0.033013
   1018     C	-4.5024853396  0.9186525875  4.3822883422	  C3      1    UNL1	 -0.030344
   1019     C	-5.0231458265  0.0168421706  4.3822883422	  C3      1    UNL1	 -0.029406
   1020     C	-4.5024853396 -0.8849682463  4.3822883422	  C3      1    UNL1	 -0.031011
   1021     C	-3.2023419676  1.7236716060  3.7163385837	  C3      1    UNL1	 -0.039835
   1022     C	-4.2488637830  1.8741387273  3.7163385837	  C3      1    UNL1	 -0.033429
   1023     C	-5.2106026249  1.4349273148  3.7163385837	  C3      1    UNL1	 -0.029998
   1024     C	-5.7822132062  0.5454838888  3.7163385837	  C3      1    UNL1	 -0.029120
   1025     C	-5.7822132062 -0.5117995476  3.7163385837	  C3      1    UNL1	 -0.030300
   1026     C	-5.2106026249 -1.4012429736  3.7163385837	  C3      1    UNL1	 -0.033016
   1027     C	-4.2488637830 -1.8404543861  3.7163385837	  C3      1    UNL1	 -0.036371
   1028     C	-5.4406831186  1.8461925743  2.7540133007	  C3      1    UNL1	 -0.030200
   1029     C	-6.0899361262  1.0320550536  2.7540133007	  C3      1    UNL1	 -0.029536
   1030     C	-6.3216518419  0.0168421706  2.7540133007	  C3      1    UNL1	 -0.030617
   1031     C	-6.0899361262 -0.9983707124  2.7540133007	  C3      1    UNL1	 -0.033228
   1032     C	-5.4406831186 -1.8125082331  2.7540133007	  C3      1    UNL1	 -0.037174
   1033     C	-6.1349361263 -1.6933707127  1.1090132999	  C3      1    UNL1	 -0.033101
   1034     C	-5.4856831186 -2.5075082334  1.1090132999	  C3      1    UNL1	 -0.034518
   1035     C	-4.5474853396 -2.9593204712  1.1090132999	  C3      1    UNL1	 -0.037515
   1036     C	-3.5061643657 -2.9593204712  1.1090132999	  C3      1    UNL1	 -0.042990
   1037     C	-6.3666518419 -0.6781578297  0.0409128169	  C3      1    UNL1	 -0.028903
   1038     C	-6.1349361263 -1.6933707127  0.0409128169	  C3      1    UNL1	 -0.029140
   1039     C	-5.4856831186 -2.5075082334  0.0409128169	  C3      1    UNL1	 -0.030240
   1040     C	-4.5474853396 -2.9593204712  0.0409128169	  C3      1    UNL1	 -0.032637
   1041     C	-3.5061643657 -2.9593204712  0.0409128169	  C3      1    UNL1	 -0.036725
   1042     C	-5.8272132062 -0.1495161115 -0.9214124660	  C3      1    UNL1	 -0.027090
   1043     C	-5.8272132062 -1.2067995479 -0.9214124660	  C3      1    UNL1	 -0.026939
   1044     C	-5.2556026249 -2.0962429739 -0.9214124660	  C3      1    UNL1	 -0.027651
   1045     C	-4.2938637830 -2.5354543864 -0.9214124660	  C3      1    UNL1	 -0.029622
   1046     C	-3.2473419676 -2.3849872652 -0.9214124660	  C3      1    UNL1	 -0.032476
   1047     C	-5.0681458266 -0.6781578297 -1.5873622246	  C3      1    UNL1	 -0.025981
   1048     C	-4.5474853396 -1.5799682466 -1.5873622246	  C3      1    UNL1	 -0.026492
   1049     C	-3.5061643657 -1.5799682466 -1.5873622246	  C3      1    UNL1	 -0.026773
   1050     C	-4.0268248527 -0.6781578297 -1.8250369416	  C3      1    UNL1	 -0.024513
