@<TRIPOS>MOLECULE
*****
 444 0 0 0 0
SMALL
GASTEIGER

@<TRIPOS>ATOM
      1     C	-0.5993987497  2.0252576247  3.1480516282	  C3      1    UNL1	 -0.025560
      2     C	 1.2525328524  2.0252576247  2.6518280510	  C3      1    UNL1	 -0.020866
      3     C	 0.3265670513  3.6290774381  2.6518280510	  C3      1    UNL1	 -0.049890
      4     C	-1.5253645507  3.6290774381  2.6518280510	  C3      1    UNL1	 -0.056979
      5     C	-2.4513303518  2.0252576247  2.6518280510	  C3      1    UNL1	 -0.040488
      6     C	 1.9956362203  3.9106608920  1.2961200262	  C3      1    UNL1	 -0.046991
      7     C	 0.3918164069  5.0759041938  1.2961200262	  C3      1    UNL1	 -0.060121
      8     C	-1.5906139063  5.0759041938  1.2961200262	  C3      1    UNL1	 -0.064376
      9     C	-3.1944337197  3.9106608920  1.2961200262	  C3      1    UNL1	 -0.063138
     10     C	-3.8070383766  2.0252576247  1.2961200262	  C3      1    UNL1	 -0.051354
     11     C	-3.1944337197  0.1398543573  1.2961200262	  C3      1    UNL1	 -0.016125
     12     C	 2.6082408772  3.8771892267 -0.5558115759	  C3      1    UNL1	 -0.044970
     13     C	 1.2525328524  5.2328972516 -0.5558115759	  C3      1    UNL1	 -0.060645
     14     C	-0.5993987497  5.7291208288 -0.5558115759	  C3      1    UNL1	 -0.065395
     15     C	-2.4513303518  5.2328972516 -0.5558115759	  C3      1    UNL1	 -0.065595
     16     C	-3.8070383766  3.8771892267 -0.5558115759	  C3      1    UNL1	 -0.062694
     17     C	-4.3032619538  2.0252576247 -0.5558115759	  C3      1    UNL1	 -0.053478
     18     C	-3.8070383766  0.1733260226 -0.5558115759	  C3      1    UNL1	 -0.030304
     19     C	 1.9956362203  3.9106608920 -2.4077431780	  C3      1    UNL1	 -0.049374
     20     C	 0.3918164069  5.0759041938 -2.4077431780	  C3      1    UNL1	 -0.064906
     21     C	-1.5906139063  5.0759041938 -2.4077431780	  C3      1    UNL1	 -0.067046
     22     C	-3.1944337197  3.9106608920 -2.4077431780	  C3      1    UNL1	 -0.063152
     23     C	-3.8070383766  2.0252576247 -2.4077431780	  C3      1    UNL1	 -0.052470
     24     C	 0.3265670513  3.6290774381 -3.7634512028	  C3      1    UNL1	 -0.054931
     25     C	-1.5253645507  3.6290774381 -3.7634512028	  C3      1    UNL1	 -0.061211
     26     C	-2.4513303518  2.0252576247 -3.7634512028	  C3      1    UNL1	 -0.048464
     27     C	-0.5993987497  2.0252576247 -4.2596747801	  C3      1    UNL1	 -0.036492
     28     C	 2.2453541011 -1.8241237353  4.5651736672	  C3      1    UNL1	  0.023367
     29     C	 1.2532478857 -3.5425021069  4.5651736672	  C3      1    UNL1	  0.041155
     30     C	 3.6978984134 -1.8241237353  3.1126293549	  C3      1    UNL1	  0.011775
     31     C	 3.1523254220  0.0339272397  3.1126293549	  C3      1    UNL1	  0.002667
     32     C	 1.6888220174  1.3020601585  3.1126293549	  C3      1    UNL1	 -0.002211
     33     C	-1.9894553729 -4.4214511811  3.1126293549	  C3      1    UNL1	  0.035267
     34     C	 3.1523254220 -3.6821747104  3.1126293549	  C3      1    UNL1	  0.033479
     35     C	 4.2295665319 -1.8241237353  1.1284169241	  C3      1    UNL1	  0.020073
     36     C	-3.5919679771 -0.8744175034  1.1284169241	  C3      1    UNL1	 -0.002765
     37     C	-3.5919679771 -2.7738299673  1.1284169241	  C3      1    UNL1	  0.005737
     38     C	-2.7092669919 -4.4556761786  1.1284169241	  C3      1    UNL1	  0.016201
     39     C	-3.0364022768 -2.7923699998 -0.8557955067	  C3      1    UNL1	  0.005164
     40     C	-1.9894553729 -4.4214511811 -0.8557955067	  C3      1    UNL1	  0.018785
     41     C	 4.2969381995 -0.6691384753 -1.2563923774	  C3      1    UNL1	  0.031363
     42     C	 3.5905428373 -2.6099437822 -1.2563923774	  C3      1    UNL1	  0.048461
     43     C	 4.2969381995 -0.6691384753 -3.2184895344	  C3      1    UNL1	  0.027103
     44     C	 3.5905428373  1.2716668316 -3.2184895344	  C3      1    UNL1	  0.012255
     45     C	-0.2320973893 -3.2839783917 -3.2184895344	  C3      1    UNL1	  0.037908
     46     C	 1.8018869914 -3.6426247164 -3.2184895344	  C3      1    UNL1	  0.043632
     47     C	 3.5905428373 -2.6099437822 -3.2184895344	  C3      1    UNL1	  0.037166
     48     C	 3.1436464271 -0.6691384753 -4.8058594790	  C3      1    UNL1	  0.024796
     49     C	 1.8542270265  1.1055950755 -4.8058594790	  C3      1    UNL1	  0.007791
     50     C	-0.2320973893  0.4277071800 -4.8058594790	  C3      1    UNL1	  0.003632
     51     C	-0.2320973893 -1.7659841307 -4.8058594790	  C3      1    UNL1	  0.023314
     52     C	 1.8542270265 -2.4438720262 -4.8058594790	  C3      1    UNL1	  0.031073
     53     C	 1.2775811403 -0.6691384753 -5.4121808452	  C3      1    UNL1	  0.020334
     54     C	-0.4702196797 -1.4550751853  5.7716585134	  C3      1    UNL1	  0.037214
     55     C	 1.3958456071 -1.4550751853  5.1653371472	  C3      1    UNL1	  0.030058
     56     C	 0.1064262065  0.3196583655  5.1653371472	  C3      1    UNL1	  0.024653
     57     C	-1.9798982093 -0.3582295300  5.1653371472	  C3      1    UNL1	  0.030423
     58     C	-1.9798982093 -2.5519208407  5.1653371472	  C3      1    UNL1	  0.039338
     59     C	 0.1064262065 -3.2298087362  5.1653371472	  C3      1    UNL1	  0.043032
     60     C	 0.0540861714  1.5184110557  3.5779672026	  C3      1    UNL1	 -0.000949
     61     C	-1.9798982093  1.1597647310  3.5779672026	  C3      1    UNL1	  0.001603
     62     C	-3.3074872278 -0.4223942512  3.5779672026	  C3      1    UNL1	  0.018747
     63     C	-3.3074872278 -2.4877561195  3.5779672026	  C3      1    UNL1	  0.028454
     64     C	-1.9798982093 -4.0699151017  3.5779672026	  C3      1    UNL1	  0.038722
     65     C	 1.4918428365 -5.0921370462  3.4239280572	  C3      1    UNL1	  0.047489
     66     C	 3.9345540095 -3.3174034953  1.8365581126	  C3      1    UNL1	  0.031274
     67     C	-0.5944815793 -5.9322434117  1.8365581126	  C3      1    UNL1	  0.043114
     68     C	 1.4395028014 -6.2908897364  1.8365581126	  C3      1    UNL1	  0.049514
     69     C	 3.2281586473 -5.2582088022  1.8365581126	  C3      1    UNL1	  0.045949
     70     C	 3.9345540095 -3.3174034953 -0.1255390444	  C3      1    UNL1	  0.043411
     71     C	-0.5944815793 -5.9322434117 -0.1255390444	  C3      1    UNL1	  0.040217
     72     C	 1.4395028014 -6.2908897364 -0.1255390444	  C3      1    UNL1	  0.050452
     73     C	 3.2281586473 -5.2582088022 -0.1255390444	  C3      1    UNL1	  0.050471
     74     C	 1.4918428365 -5.0921370462 -1.7129089890	  C3      1    UNL1	  0.051809
     75     C	 3.2407261020  1.7441938797  1.3062423049	  C3      1    UNL1	 -0.003983
     76     C	 4.3179672119 -0.1138570953 -0.6779701259	  C3      1    UNL1	  0.025842
     77     C	 3.8634080563  1.7303618944 -0.6779701259	  C3      1    UNL1	  0.004424
     78     C	-3.5035672971 -1.0635633273 -0.6779701259	  C3      1    UNL1	 -0.006376
     79     C	 3.8634080563 -1.9580760850 -0.6779701259	  C3      1    UNL1	  0.041320
     80     C	-2.9480015968 -1.0821033598 -2.6621825567	  C3      1    UNL1	  0.002007
     81     C	-1.9010546929 -2.7111845411 -2.6621825567	  C3      1    UNL1	  0.023877
     82     C	-0.1395591298 -3.5156326102 -2.6621825567	  C3      1    UNL1	  0.043469
     83     C	-1.6346700805 -0.1138570953 -4.1147268691	  C3      1    UNL1	 -0.000569
     84     C	-0.5993987497  2.0252576247  3.6771749431	  C3      1    UNL1	 -0.014626
     85     C	 0.3189132596  3.6158206819  3.2579774960	  C3      1    UNL1	 -0.036442
     86     C	-1.5177107590  3.6158206819  3.2579774960	  C3      1    UNL1	 -0.041469
     87     C	-2.4360227682  2.0252576247  3.2579774960	  C3      1    UNL1	 -0.025559
     88     C	 2.0780285324  3.9705224107  2.0834123501	  C3      1    UNL1	 -0.035925
     89     C	 0.4232874696  5.1727621656  2.0834123501	  C3      1    UNL1	 -0.047445
     90     C	-1.6220849690  5.1727621656  2.0834123501	  C3      1    UNL1	 -0.051277
     91     C	-3.2768260318  3.9705224107  2.0834123501	  C3      1    UNL1	 -0.049139
     92     C	-3.9088808751  2.0252576247  2.0834123501	  C3      1    UNL1	 -0.036907
     93     C	 3.0547513905  3.9431035652  0.3861165377	  C3      1    UNL1	 -0.033189
     94     C	 1.7449230617  5.4215941133  0.3861165377	  C3      1    UNL1	 -0.046858
     95     C	-0.1019611421  6.1220249021  0.3861165377	  C3      1    UNL1	 -0.052513
     96     C	-2.0628023069  5.8839356791  0.3861165377	  C3      1    UNL1	 -0.054059
     97     C	-3.6883953528  4.7618698159  0.3861165377	  C3      1    UNL1	 -0.052772
     98     C	-4.6063365033  3.0128790795  0.3861165377	  C3      1    UNL1	 -0.047285
     99     C	-4.6063365033  1.0376361699  0.3861165377	  C3      1    UNL1	 -0.033952
    100     C	 3.0547513905  3.9431035652 -1.4977396895	  C3      1    UNL1	 -0.033228
    101     C	 1.7449230617  5.4215941133 -1.4977396895	  C3      1    UNL1	 -0.048370
    102     C	-0.1019611421  6.1220249021 -1.4977396895	  C3      1    UNL1	 -0.054106
    103     C	-2.0628023069  5.8839356791 -1.4977396895	  C3      1    UNL1	 -0.055015
    104     C	-3.6883953528  4.7618698159 -1.4977396895	  C3      1    UNL1	 -0.053064
    105     C	-4.6063365033  3.0128790795 -1.4977396895	  C3      1    UNL1	 -0.047598
    106     C	-4.6063365033  1.0376361699 -1.4977396895	  C3      1    UNL1	 -0.035460
    107     C	 2.0780285324  3.9705224107 -3.1950355019	  C3      1    UNL1	 -0.037338
    108     C	 0.4232874696  5.1727621656 -3.1950355019	  C3      1    UNL1	 -0.051324
    109     C	-1.6220849690  5.1727621656 -3.1950355019	  C3      1    UNL1	 -0.054200
    110     C	-3.2768260318  3.9705224107 -3.1950355019	  C3      1    UNL1	 -0.050954
    111     C	-3.9088808751  2.0252576247 -3.1950355019	  C3      1    UNL1	 -0.041226
    112     C	 0.3189132596  3.6158206819 -4.3696006478	  C3      1    UNL1	 -0.040951
    113     C	-1.5177107590  3.6158206819 -4.3696006478	  C3      1    UNL1	 -0.046815
    114     C	-2.4360227682  2.0252576247 -4.3696006478	  C3      1    UNL1	 -0.036736
    115     C	-0.5993987497  2.0252576247 -4.7887980949	  C3      1    UNL1	 -0.027152
    116     C	 2.2289531187 -1.8241237353  5.2146195011	  C3      1    UNL1	  0.022055
    117     C	 1.2450473945 -3.5282984395  5.2146195011	  C3      1    UNL1	  0.033708
    118     C	 3.8070153761 -1.8241237353  3.9561568448	  C3      1    UNL1	  0.013038
    119     C	 3.2441204523  0.0929203236  3.9561568448	  C3      1    UNL1	  0.005059
    120     C	 1.7341508419  1.4013164390  3.9561568448	  C3      1    UNL1	 -0.000014
    121     C	-2.0609117872 -4.5039162792  3.9561568448	  C3      1    UNL1	  0.032774
    122     C	-0.2434887727 -5.3339055596  3.9561568448	  C3      1    UNL1	  0.038772
    123     C	 1.7341508419 -5.0495639096  3.9561568448	  C3      1    UNL1	  0.038994
    124     C	 3.2441204523 -3.7411677943  3.9561568448	  C3      1    UNL1	  0.027092
    125     C	 4.6827738588 -1.8241237353  2.1376256173	  C3      1    UNL1	  0.014102
    126     C	 4.2448946175  0.0943505716  2.1376256173	  C3      1    UNL1	  0.005463
    127     C	-3.7226112769  0.0943505716  2.1376256173	  C3      1    UNL1	 -0.006740
    128     C	-4.1604905182 -1.8241237353  2.1376256173	  C3      1    UNL1	  0.008017
    129     C	-3.7226112769 -3.7425980423  2.1376256173	  C3      1    UNL1	  0.014438
    130     C	-2.4957009068 -5.2810949842  2.1376256173	  C3      1    UNL1	  0.023873
    131     C	 4.6827738588 -1.8241237353  0.1192082309	  C3      1    UNL1	  0.025363
    132     C	-4.1604905182 -1.8241237353  0.1192082309	  C3      1    UNL1	 -0.002812
    133     C	-3.7226112769 -3.7425980423  0.1192082309	  C3      1    UNL1	  0.006326
    134     C	-2.4957009068 -5.2810949842  0.1192082309	  C3      1    UNL1	  0.018557
    135     C	-2.0609117872 -4.5039162792 -1.6993229966	  C3      1    UNL1	  0.019342
    136     C	 4.9058552995 -0.6691384753 -2.2374409559	  C3      1    UNL1	  0.023208
    137     C	 4.4197587340  1.1449986042 -2.2374409559	  C3      1    UNL1	  0.011801
    138     C	 3.0917182199 -3.8113160691 -2.2374409559	  C3      1    UNL1	  0.045055
    139     C	 4.4197587340 -2.4832755549 -2.2374409559	  C3      1    UNL1	  0.032906
    140     C	 4.4197587340 -0.6691384753 -4.0515780355	  C3      1    UNL1	  0.021122
    141     C	 3.8196562130  1.1777871743 -4.0515780355	  C3      1    UNL1	  0.009769
    142     C	 2.2485674161  2.3192500005 -4.0515780355	  C3      1    UNL1	 -0.010442
    143     C	 0.3065948645 -3.6575269512 -4.0515780355	  C3      1    UNL1	  0.030416
    144     C	 2.2485674161 -3.6575269512 -4.0515780355	  C3      1    UNL1	  0.032851
    145     C	 3.8196562130 -2.5160641250 -4.0515780355	  C3      1    UNL1	  0.028565
    146     C	 3.0917182199 -0.6691384753 -5.3796185496	  C3      1    UNL1	  0.018835
    147     C	 2.1846496801  0.9019503215 -5.3796185496	  C3      1    UNL1	  0.007590
    148     C	 0.3705126005  0.9019503215 -5.3796185496	  C3      1    UNL1	 -0.000514
    149     C	-0.5365559393 -0.6691384753 -5.3796185496	  C3      1    UNL1	  0.009781
    150     C	 0.3705126005 -2.2402272722 -5.3796185496	  C3      1    UNL1	  0.021003
    151     C	 2.1846496801 -2.2402272722 -5.3796185496	  C3      1    UNL1	  0.024013
    152     C	 1.2775811403 -0.6691384753 -5.8657151151	  C3      1    UNL1	  0.015040
    153     C	-0.4702196797 -1.4550751853  6.2251927833	  C3      1    UNL1	  0.029307
    154     C	 1.3439173999 -1.4550751853  5.7390962178	  C3      1    UNL1	  0.025509
    155     C	 0.4368488601  0.1160136115  5.7390962178	  C3      1    UNL1	  0.020187
    156     C	-1.3772882195  0.1160136115  5.7390962178	  C3      1    UNL1	  0.021437
    157     C	-2.2843567593 -1.4550751853  5.7390962178	  C3      1    UNL1	  0.027989
    158     C	-1.3772882195 -3.0261639822  5.7390962178	  C3      1    UNL1	  0.033577
    159     C	 0.4368488601 -3.0261639822  5.7390962178	  C3      1    UNL1	  0.033773
    160     C	 0.5007665961  1.5333132905  4.4110557037	  C3      1    UNL1	  0.003051
    161     C	-1.4412059555  1.5333132905  4.4110557037	  C3      1    UNL1	  0.001543
    162     C	-3.0122947524  0.3918504643  4.4110557037	  C3      1    UNL1	  0.011578
    163     C	-3.6123972734 -1.4550751853  4.4110557037	  C3      1    UNL1	  0.021420
    164     C	-3.0122947524 -3.3020008350  4.4110557037	  C3      1    UNL1	  0.028436
    165     C	-3.6123972734  0.3590618942  2.5969186241	  C3      1    UNL1	 -0.005272
    166     C	-4.0984938389 -1.4550751853  2.5969186241	  C3      1    UNL1	  0.010185
    167     C	-0.0557893255 -6.3057919712  2.6696466137	  C3      1    UNL1	  0.039228
    168     C	 1.8861832261 -6.3057919712  2.6696466137	  C3      1    UNL1	  0.040621
    169     C	 3.4572720230 -5.1643291450  2.6696466137	  C3      1    UNL1	  0.036224
    170     C	 4.5434711095 -3.3174034953  0.8555095341	  C3      1    UNL1	  0.030578
    171     C	-0.8989401293 -6.4595810891  0.8555095341	  C3      1    UNL1	  0.034204
    172     C	 0.9151969503 -6.9456776545  0.8555095341	  C3      1    UNL1	  0.040657
    173     C	 2.7293340299 -6.4595810891  0.8555095341	  C3      1    UNL1	  0.041994
    174     C	 4.0573745440 -5.1315405749  0.8555095341	  C3      1    UNL1	  0.038473
    175     C	 4.0573745440 -3.3174034953 -0.9586275455	  C3      1    UNL1	  0.040993
    176     C	-0.0557893255 -6.3057919712 -0.9586275455	  C3      1    UNL1	  0.036995
    177     C	 1.8861832261 -6.3057919712 -0.9586275455	  C3      1    UNL1	  0.042677
    178     C	 3.4572720230 -5.1643291450 -0.9586275455	  C3      1    UNL1	  0.042995
    179     C	 0.0081284105 -4.8884922922 -2.2866680596	  C3      1    UNL1	  0.038083
    180     C	 1.8222654901 -4.8884922922 -2.2866680596	  C3      1    UNL1	  0.044864
    181     C	 3.3325211323  1.8031869636  2.1497697948	  C3      1    UNL1	 -0.006277
    182     C	 4.7711745388 -0.1138570953  0.3312385673	  C3      1    UNL1	  0.015683
    183     C	 4.3332952975  1.8046172116  0.3312385673	  C3      1    UNL1	  0.000363
    184     C	 4.3332952975  1.8046172116 -1.6871788191	  C3      1    UNL1	  0.003626
    185     C	-3.6342105969 -2.0323314023 -1.6871788191	  C3      1    UNL1	  0.001871
    186     C	-3.0526985558 -1.1128451607 -3.5057100466	  C3      1    UNL1	 -0.000319
    187     C	-1.9725111072 -2.7936496392 -3.5057100466	  C3      1    UNL1	  0.018419
    188     C	-1.6182690981 -0.1138570953 -4.7641727029	  C3      1    UNL1	 -0.001829
    189     C	 0.4337022607  3.8146410640  3.7347011300	  C3      1    UNL1	 -0.028162
    190     C	-1.6324997601  3.8146410640  3.7347011300	  C3      1    UNL1	 -0.032154
    191     C	-2.6656007705  2.0252576247  3.7347011300	  C3      1    UNL1	 -0.017153
    192     C	 2.5327289714  4.0381538865  2.4133153409	  C3      1    UNL1	 -0.027128
    193     C	 0.9472608805  5.4119698077  2.4133153409	  C3      1    UNL1	 -0.037513
    194     C	-1.1292607148  5.7105285401  2.4133153409	  C3      1    UNL1	 -0.041704
    195     C	-3.0375548800  4.8390397957  2.4133153409	  C3      1    UNL1	 -0.041259
    196     C	-4.1717517011  3.0741950933  2.4133153409	  C3      1    UNL1	 -0.034862
    197     C	-4.1717517011  0.9763201560  2.4133153409	  C3      1    UNL1	 -0.017739
    198     C	 3.5835418448  4.0396556470  0.5038575519	  C3      1    UNL1	 -0.025053
    199     C	 2.2952859563  5.6550774360  0.5038575519	  C3      1    UNL1	 -0.037229
    200     C	 0.4337022607  6.5515688945  0.5038575519	  C3      1    UNL1	 -0.043057
    201     C	-1.6324997601  6.5515688945  0.5038575519	  C3      1    UNL1	 -0.045135
    202     C	-3.4940834557  5.6550774360  0.5038575519	  C3      1    UNL1	 -0.044690
    203     C	-4.7823393442  4.0396556470  0.5038575519	  C3      1    UNL1	 -0.041387
    204     C	-5.2421125476  2.0252576247  0.5038575519	  C3      1    UNL1	 -0.033434
    205     C	-4.7823393442  0.0108596024  0.5038575519	  C3      1    UNL1	 -0.018682
    206     C	 3.5835418448  4.0396556470 -1.6154807038	  C3      1    UNL1	 -0.024737
    207     C	 2.2952859563  5.6550774360 -1.6154807038	  C3      1    UNL1	 -0.038182
    208     C	 0.4337022607  6.5515688945 -1.6154807038	  C3      1    UNL1	 -0.044290
    209     C	-1.6324997601  6.5515688945 -1.6154807038	  C3      1    UNL1	 -0.046116
    210     C	-3.4940834557  5.6550774360 -1.6154807038	  C3      1    UNL1	 -0.045297
    211     C	-4.7823393442  4.0396556470 -1.6154807038	  C3      1    UNL1	 -0.041926
    212     C	-5.2421125476  2.0252576247 -1.6154807038	  C3      1    UNL1	 -0.034613
    213     C	-4.7823393442  0.0108596024 -1.6154807038	  C3      1    UNL1	 -0.021044
    214     C	 2.5327289714  4.0381538865 -3.5249384927	  C3      1    UNL1	 -0.027579
    215     C	 0.9472608805  5.4119698077 -3.5249384927	  C3      1    UNL1	 -0.040399
    216     C	-1.1292607148  5.7105285401 -3.5249384927	  C3      1    UNL1	 -0.044593
    217     C	-3.0375548800  4.8390397957 -3.5249384927	  C3      1    UNL1	 -0.043605
    218     C	-4.1717517011  3.0741950933 -3.5249384927	  C3      1    UNL1	 -0.038205
    219     C	-4.1717517011  0.9763201560 -3.5249384927	  C3      1    UNL1	 -0.026303
    220     C	 0.4337022607  3.8146410640 -4.8463242818	  C3      1    UNL1	 -0.032371
    221     C	-1.6324997601  3.8146410640 -4.8463242818	  C3      1    UNL1	 -0.037707
    222     C	-2.6656007705  2.0252576247 -4.8463242818	  C3      1    UNL1	 -0.029058
    223     C	-0.5993987497  2.0252576247 -5.3179214098	  C3      1    UNL1	 -0.020703
    224     C	 2.2136922452 -1.8241237353  5.8422910031	  C3      1    UNL1	  0.019789
    225     C	 1.2374169577 -3.5150821353  5.8422910031	  C3      1    UNL1	  0.027928
    226     C	 3.8689846949 -1.8241237353  4.7362599487	  C3      1    UNL1	  0.013359
    227     C	 3.2962523607  0.1264234667  4.7362599487	  C3      1    UNL1	  0.006607
    228     C	 1.7598938273  1.4576857141  4.7362599487	  C3      1    UNL1	  0.001979
    229     C	-2.1014930608 -4.5507495655  4.7362599487	  C3      1    UNL1	  0.028838
    230     C	-0.2523079263 -5.3952441200  4.7362599487	  C3      1    UNL1	  0.031960
    231     C	 1.7598938273 -5.1059331848  4.7362599487	  C3      1    UNL1	  0.031031
    232     C	 3.2962523607 -3.7746709374  4.7362599487	  C3      1    UNL1	  0.023099
    233     C	 4.9750157494 -1.8241237353  3.0809674990	  C3      1    UNL1	  0.012145
    234     C	 4.5081954627  0.2211495758  3.0809674990	  C3      1    UNL1	  0.004005
    235     C	 3.2001940858  1.8613314240  3.0809674990	  C3      1    UNL1	 -0.006073
    236     C	-3.9859121221 -3.8693970465  3.0809674990	  C3      1    UNL1	  0.016633
    237     C	-2.6779107452 -5.5095788947  3.0809674990	  C3      1    UNL1	  0.023228
    238     C	-0.7877939923 -6.4198111495  3.0809674990	  C3      1    UNL1	  0.031754
    239     C	 4.5081954627 -3.8693970465  3.0809674990	  C3      1    UNL1	  0.023128
    240     C	 5.3634022066 -1.8241237353  1.1284169241	  C3      1    UNL1	  0.016909
    241     C	-4.8411188660 -1.8241237353  1.1284169241	  C3      1    UNL1	 -0.000541
    242     C	-4.4527324087 -3.7766743102  1.1284169241	  C3      1    UNL1	  0.007521
    243     C	-3.3467013543 -5.4319667600  1.1284169241	  C3      1    UNL1	  0.015624
    244     C	-1.6914089046 -6.5379978144  1.1284169241	  C3      1    UNL1	  0.026505
    245     C	 4.9750157494 -3.7766743102  1.1284169241	  C3      1    UNL1	  0.027077
    246     C	-3.9859121221 -3.8693970465 -0.8241336508	  C3      1    UNL1	  0.006350
    247     C	-2.6779107452 -5.5095788947 -0.8241336508	  C3      1    UNL1	  0.016761
    248     C	-2.1014930608 -4.5507495655 -2.4794261005	  C3      1    UNL1	  0.018646
    249     C	-0.2523079263 -5.3952441200 -2.4794261005	  C3      1    UNL1	  0.031277
    250     C	 5.3593895694 -0.6691384753 -2.2374409559	  C3      1    UNL1	  0.019295
    251     C	 3.5963126118 -4.0284009561 -2.2374409559	  C3      1    UNL1	  0.038667
    252     C	 4.8918430094 -2.5660494362 -2.2374409559	  C3      1    UNL1	  0.028030
    253     C	 4.8125309332 -0.6691384753 -4.2783451704	  C3      1    UNL1	  0.017342
    254     C	 4.2513701420  1.2419996704 -4.2783451704	  C3      1    UNL1	  0.007523
    255     C	 0.7745053322 -4.1681075764 -4.2783451704	  C3      1    UNL1	  0.027820
    256     C	 2.7460523545 -3.8846419090 -4.2783451704	  C3      1    UNL1	  0.028401
    257     C	 4.2513701420 -2.5802766211 -4.2783451704	  C3      1    UNL1	  0.024033
    258     C	 3.3184853548 -0.6691384753 -5.7723907489	  C3      1    UNL1	  0.015034
    259     C	 2.2980332476  1.0983364211 -5.7723907489	  C3      1    UNL1	  0.004123
    260     C	 0.2571290330  1.0983364211 -5.7723907489	  C3      1    UNL1	 -0.003807
    261     C	-0.7633230742 -0.6691384753 -5.7723907489	  C3      1    UNL1	  0.006183
    262     C	 0.2571290330 -2.4366133718 -5.7723907489	  C3      1    UNL1	  0.017256
    263     C	 2.2980332476 -2.4366133718 -5.7723907489	  C3      1    UNL1	  0.020119
    264     C	 1.2775811403 -0.6691384753 -6.3192493850	  C3      1    UNL1	  0.011386
    265     C	-0.4702196797 -1.4550751853  6.6787270532	  C3      1    UNL1	  0.023676
    266     C	 1.5706845348 -1.4550751853  6.1318684170	  C3      1    UNL1	  0.021015
    267     C	 0.5502324276  0.3123997111  6.1318684170	  C3      1    UNL1	  0.015170
    268     C	-1.4906717870  0.3123997111  6.1318684170	  C3      1    UNL1	  0.015708
    269     C	-2.5111238942 -1.4550751853  6.1318684170	  C3      1    UNL1	  0.022151
    270     C	-1.4906717870 -3.2225500818  6.1318684170	  C3      1    UNL1	  0.027879
    271     C	 0.5502324276 -3.2225500818  6.1318684170	  C3      1    UNL1	  0.028489
    272     C	-0.9732954878  2.0438939157  4.6378228386	  C3      1    UNL1	 -0.004930
    273     C	-2.7851194956  1.2164616160  4.6378228386	  C3      1    UNL1	  0.001753
    274     C	-3.8619791681 -0.4591647419  4.6378228386	  C3      1    UNL1	  0.012060
    275     C	-3.8619791681 -2.4509856288  4.6378228386	  C3      1    UNL1	  0.019659
    276     C	-2.7851194956 -4.1266119867  4.6378228386	  C3      1    UNL1	  0.026126
    277     C	 0.4121211422 -6.8163725964  2.8964137486	  C3      1    UNL1	  0.034199
    278     C	 2.3836681645 -6.5329069290  2.8964137486	  C3      1    UNL1	  0.034315
    279     C	 3.8889859520 -5.2285416411  2.8964137486	  C3      1    UNL1	  0.030330
    280     C	-0.5322322666 -7.1339606760  0.8555095341	  C3      1    UNL1	  0.031302
    281     C	 1.4072045878 -7.3694509452  0.8555095341	  C3      1    UNL1	  0.035159
    282     C	 3.2339284218 -6.6766659761  0.8555095341	  C3      1    UNL1	  0.035463
    283     C	 4.5294588194 -5.2143144562  0.8555095341	  C3      1    UNL1	  0.032385
    284     C	 0.4121211422 -6.8163725964 -1.1853946804	  C3      1    UNL1	  0.033281
    285     C	 2.3836681645 -6.5329069290 -1.1853946804	  C3      1    UNL1	  0.036608
    286     C	 3.8889859520 -5.2285416411 -1.1853946804	  C3      1    UNL1	  0.036496
    287     C	 1.9356490576 -5.0848783918 -2.6794402589	  C3      1    UNL1	  0.038317
    288     C	 3.3846530407  1.8366901067  2.9298728987	  C3      1    UNL1	 -0.005650
    289     C	 4.5965961427  1.9314162158  1.2745804490	  C3      1    UNL1	 -0.002292
    290     C	 5.4518028866 -0.1138570953 -0.6779701259	  C3      1    UNL1	  0.015116
    291     C	 5.0634164294  1.8386934795 -0.6779701259	  C3      1    UNL1	  0.002069
    292     C	 3.9573853749  3.4939859293 -0.6779701259	  C3      1    UNL1	 -0.018775
    293     C	 5.0634164294 -2.0664076702 -0.6779701259	  C3      1    UNL1	  0.026000
    294     C	 4.5965961427  1.9314162158 -2.6305207008	  C3      1    UNL1	  0.002407
    295     C	-4.3643317287 -0.1138570953 -2.6305207008	  C3      1    UNL1	 -0.018182
    296     C	-3.8975114421 -2.1591304065 -2.6305207008	  C3      1    UNL1	  0.001658
    297     C	-2.5895100652 -3.7993122547 -2.6305207008	  C3      1    UNL1	  0.014797
    298     C	-3.1121576817 -1.1303039354 -4.2858131505	  C3      1    UNL1	 -0.001154
    299     C	-2.0130923808 -2.8404829255 -4.2858131505	  C3      1    UNL1	  0.014229
    300     C	-0.6267329371  1.5771013047 -5.3918442050	  C3      1    UNL1	 -0.015365
    301     C	-1.6030082246 -0.1138570953 -5.3918442050	  C3      1    UNL1	 -0.002138
    302     C	 0.4130348817  3.7788441136  4.3326504320	  C3      1    UNL1	 -0.020649
    303     C	-1.6118323811  3.7788441136  4.3326504320	  C3      1    UNL1	 -0.023551
    304     C	 2.6408065815  3.8959910448  3.1856552644	  C3      1    UNL1	 -0.019889
    305     C	 1.2713346705  5.2654629558  3.1856552644	  C3      1    UNL1	 -0.028549
    306     C	-0.5993987497  5.7667244650  3.1856552644	  C3      1    UNL1	 -0.032756
    307     C	-2.4701321699  5.2654629558  3.1856552644	  C3      1    UNL1	 -0.033233
    308     C	-3.8396040809  3.8959910448  3.1856552644	  C3      1    UNL1	 -0.029583
    309     C	-4.3408655900  2.0252576247  3.1856552644	  C3      1    UNL1	 -0.019649
    310     C	 3.8664335125  4.0135742516  1.4690556869	  C3      1    UNL1	 -0.019057
    311     C	 2.6716207978  5.6580928704  1.4690556869	  C3      1    UNL1	 -0.029039
    312     C	 0.9112190871  6.6744612719  1.4690556869	  C3      1    UNL1	 -0.034618
    313     C	-1.1103821711  6.8869401262  1.4690556869	  C3      1    UNL1	 -0.037119
    314     C	-3.0436297537  6.2587899089  1.4690556869	  C3      1    UNL1	 -0.037356
    315     C	-4.5542475904  4.8986234993  1.4690556869	  C3      1    UNL1	 -0.035299
    316     C	-5.3810361340  3.0416260262  1.4690556869	  C3      1    UNL1	 -0.030028
    317     C	-5.3810361340  1.0088892231  1.4690556869	  C3      1    UNL1	 -0.020023
    318     C	 4.3345292208  3.9366715035 -0.5558115759	  C3      1    UNL1	 -0.017259
    319     C	 3.3108697303  5.5899383465 -0.5558115759	  C3      1    UNL1	 -0.028315
    320     C	 1.7591068141  6.7617753054 -0.5558115759	  C3      1    UNL1	 -0.034712
    321     C	-0.1111853475  7.2939193056 -0.5558115759	  C3      1    UNL1	 -0.037914
    322     C	-2.0474134344  7.1145013512 -0.5558115759	  C3      1    UNL1	 -0.038986
    323     C	-3.7880791143  6.2477528309 -0.5558115759	  C3      1    UNL1	 -0.038445
    324     C	-5.0980958419  4.8107329355 -0.5558115759	  C3      1    UNL1	 -0.036214
    325     C	-5.8005385991  2.9975191644 -0.5558115759	  C3      1    UNL1	 -0.031659
    326     C	-5.8005385991  1.0529960849 -0.5558115759	  C3      1    UNL1	 -0.023832
    327     C	 3.8664335125  4.0135742516 -2.5806788387	  C3      1    UNL1	 -0.018279
    328     C	 2.6716207978  5.6580928704 -2.5806788387	  C3      1    UNL1	 -0.030046
    329     C	 0.9112190871  6.6744612719 -2.5806788387	  C3      1    UNL1	 -0.036217
    330     C	-1.1103821711  6.8869401262 -2.5806788387	  C3      1    UNL1	 -0.038674
    331     C	-3.0436297537  6.2587899089 -2.5806788387	  C3      1    UNL1	 -0.038653
    332     C	-4.5542475904  4.8986234993 -2.5806788387	  C3      1    UNL1	 -0.036563
    333     C	-5.3810361340  3.0416260262 -2.5806788387	  C3      1    UNL1	 -0.031951
    334     C	-5.3810361340  1.0088892231 -2.5806788387	  C3      1    UNL1	 -0.023681
    335     C	 2.6408065815  3.8959910448 -4.2972784163	  C3      1    UNL1	 -0.020119
    336     C	 1.2713346705  5.2654629558 -4.2972784163	  C3      1    UNL1	 -0.031017
    337     C	-0.5993987497  5.7667244650 -4.2972784163	  C3      1    UNL1	 -0.035769
    338     C	-2.4701321699  5.2654629558 -4.2972784163	  C3      1    UNL1	 -0.036275
    339     C	-3.8396040809  3.8959910448 -4.2972784163	  C3      1    UNL1	 -0.033395
    340     C	-4.3408655900  2.0252576247 -4.2972784163	  C3      1    UNL1	 -0.026656
    341     C	 0.4130348817  3.7788441136 -5.4442735838	  C3      1    UNL1	 -0.025120
    342     C	-1.6118323811  3.7788441136 -5.4442735838	  C3      1    UNL1	 -0.029662
    343     C	-2.6242660125  2.0252576247 -5.4442735838	  C3      1    UNL1	 -0.022745
    344     C	-0.5993987497  2.0252576247 -5.8470447247	  C3      1    UNL1	 -0.016197
    345     C	 2.2001148702 -1.8241237353  6.4557020078	  C3      1    UNL1	  0.017326
    346     C	 1.2306282703 -3.5033237837  6.4557020078	  C3      1    UNL1	  0.023313
    347     C	 3.9052192860 -1.8241237353  5.4712595143	  C3      1    UNL1	  0.012885
    348     C	 3.3267348384  0.1460133657  5.4712595143	  C3      1    UNL1	  0.007184
    349     C	 1.7749462204  1.4906458575  5.4712595143	  C3      1    UNL1	  0.003064
    350     C	-2.1252216717 -4.5781338423  5.4712595143	  C3      1    UNL1	  0.024753
    351     C	-0.2574646462 -5.4311098953  5.4712595143	  C3      1    UNL1	  0.026713
    352     C	 1.7749462204 -5.1388933282  5.4712595143	  C3      1    UNL1	  0.025623
    353     C	 3.3267348384 -3.7942608364  5.4712595143	  C3      1    UNL1	  0.020024
    354     C	 5.1707941605 -1.8241237353  3.9630061109	  C3      1    UNL1	  0.011169
    355     C	 4.7463324013  0.1728118372  3.9630061109	  C3      1    UNL1	  0.004550
    356     C	 3.5463404181  1.8244591076  3.9630061109	  C3      1    UNL1	 -0.002909
    357     C	-3.7108506307 -4.7099450630  3.9630061109	  C3      1    UNL1	  0.018463
    358     C	-2.1936845748 -6.0760075156  3.9630061109	  C3      1    UNL1	  0.023309
    359     C	-0.2520567597 -6.7068806355  3.9630061109	  C3      1    UNL1	  0.028067
    360     C	 3.5463404181 -5.4727065783  3.9630061109	  C3      1    UNL1	  0.026246
    361     C	 4.7463324013 -3.8210593079  3.9630061109	  C3      1    UNL1	  0.018853
    362     C	 5.8441924859 -1.8241237353  2.1128594176	  C3      1    UNL1	  0.012951
    363     C	 5.4671815112  0.1927068437  2.1128594176	  C3      1    UNL1	  0.006027
    364     C	-5.2268470956 -0.7982408400  2.1128594176	  C3      1    UNL1	 -0.003030
    365     C	-5.2268470956 -2.8500066307  2.1128594176	  C3      1    UNL1	  0.005839
    366     C	-4.4856638028 -4.7632212517  2.1128594176	  C3      1    UNL1	  0.011868
    367     C	-3.1033981279 -6.2794944670  2.1128594176	  C3      1    UNL1	  0.018412
    368     C	-1.2667327096 -7.1940451769  2.1128594176	  C3      1    UNL1	  0.025963
    369     C	 5.4671815112 -3.8409543144  2.1128594176	  C3      1    UNL1	  0.020825
    370     C	 5.8441924859 -1.8241237353  0.1439744306	  C3      1    UNL1	  0.017964
    371     C	-5.2268470956 -0.7982408400  0.1439744306	  C3      1    UNL1	 -0.010666
    372     C	-5.2268470956 -2.8500066307  0.1439744306	  C3      1    UNL1	  0.001009
    373     C	-4.4856638028 -4.7632212517  0.1439744306	  C3      1    UNL1	  0.008379
    374     C	-3.1033981279 -6.2794944670  0.1439744306	  C3      1    UNL1	  0.016169
    375     C	 5.4671815112 -3.8409543144  0.1439744306	  C3      1    UNL1	  0.025229
    376     C	-4.5412231334 -2.8448978859 -1.7061722628	  C3      1    UNL1	  0.001627
    377     C	-3.7108506307 -4.7099450630 -1.7061722628	  C3      1    UNL1	  0.009897
    378     C	-2.1936845748 -6.0760075156 -1.7061722628	  C3      1    UNL1	  0.018686
    379     C	 4.7463324013 -3.8210593079 -1.7061722628	  C3      1    UNL1	  0.030438
    380     C	-2.1252216717 -4.5781338423 -3.2144256661	  C3      1    UNL1	  0.017066
    381     C	-0.2574646462 -5.4311098953 -3.2144256661	  C3      1    UNL1	  0.026345
    382     C	 1.7749462204 -5.1388933282 -3.2144256661	  C3      1    UNL1	  0.033072
    383     C	 5.6992133288 -0.6691384753 -3.2466496491	  C3      1    UNL1	  0.015552
    384     C	 5.2613340875  1.2493358316 -3.2466496491	  C3      1    UNL1	  0.007092
    385     C	 2.2614868645 -4.9799111133 -3.2466496491	  C3      1    UNL1	  0.033000
    386     C	 4.0344237174 -4.1261097242 -3.2466496491	  C3      1    UNL1	  0.028551
    387     C	 5.2613340875 -2.5876127823 -3.2466496491	  C3      1    UNL1	  0.022207
    388     C	 4.8234548461 -0.6691384753 -5.0651808766	  C3      1    UNL1	  0.013943
    389     C	 4.2605599223  1.2479055836 -5.0651808766	  C3      1    UNL1	  0.005632
    390     C	 2.7505903119  2.5563016990 -5.0651808766	  C3      1    UNL1	 -0.007116
    391     C	 0.7729506973 -4.1789202996 -5.0651808766	  C3      1    UNL1	  0.021902
    392     C	 2.7505903119 -3.8945786496 -5.0651808766	  C3      1    UNL1	  0.022679
    393     C	 4.2605599223 -2.5861825343 -5.0651808766	  C3      1    UNL1	  0.019509
    394     C	 3.2453925887 -0.6691384753 -6.3236435329	  C3      1    UNL1	  0.011832
    395     C	 2.2614868645  1.0350362288 -6.3236435329	  C3      1    UNL1	  0.002926
    396     C	 0.2936754161  1.0350362288 -6.3236435329	  C3      1    UNL1	 -0.002981
    397     C	-0.6902303081 -0.6691384753 -6.3236435329	  C3      1    UNL1	  0.004530
    398     C	 0.2936754161 -2.3733131795 -6.3236435329	  C3      1    UNL1	  0.013637
    399     C	 2.2614868645 -2.3733131795 -6.3236435329	  C3      1    UNL1	  0.016114
    400     C	 1.2775811403 -0.6691384753 -6.7727836549	  C3      1    UNL1	  0.008761
    401     C	-0.4702196797 -1.4550751853  7.1322613230	  C3      1    UNL1	  0.019510
    402     C	 1.4975917687 -1.4550751853  6.6831212011	  C3      1    UNL1	  0.018139
    403     C	 0.5136860445  0.2490995188  6.6831212011	  C3      1    UNL1	  0.012998
    404     C	-1.4541254039  0.2490995188  6.6831212011	  C3      1    UNL1	  0.013113
    405     C	-2.4380311281 -1.4550751853  6.6831212011	  C3      1    UNL1	  0.018332
    406     C	-1.4541254039 -3.1592498895  6.6831212011	  C3      1    UNL1	  0.023202
    407     C	 0.5136860445 -3.1592498895  6.6831212011	  C3      1    UNL1	  0.023754
    408     C	-0.9748501227  2.0547066389  5.4246585448	  C3      1    UNL1	 -0.001143
    409     C	-2.7922731372  1.2247173585  5.4246585448	  C3      1    UNL1	  0.003359
    410     C	-3.8724605858 -0.4560871200  5.4246585448	  C3      1    UNL1	  0.010975
    411     C	-3.8724605858 -2.4540632507  5.4246585448	  C3      1    UNL1	  0.017388
    412     C	-2.7922731372 -4.1348677292  5.4246585448	  C3      1    UNL1	  0.022816
    413     C	-4.4539726269  0.4633991216  3.6061273173	  C3      1    UNL1	 -0.002625
    414     C	-4.8918518682 -1.4550751853  3.6061273173	  C3      1    UNL1	  0.007727
    415     C	 2.3882061219 -6.5428436696  3.6832494548	  C3      1    UNL1	  0.029414
    416     C	-0.0687087739 -7.6281761333  1.8647182273	  C3      1    UNL1	  0.028713
    417     C	 1.8991026745 -7.6281761333  1.8647182273	  C3      1    UNL1	  0.030430
    418     C	 3.6720395274 -6.7743747442  1.8647182273	  C3      1    UNL1	  0.029701
    419     C	 4.8989498975 -5.2358778023  1.8647182273	  C3      1    UNL1	  0.026459
    420     C	-0.0687087739 -7.6281761333 -0.1536991591	  C3      1    UNL1	  0.028118
    421     C	 1.8991026745 -7.6281761333 -0.1536991591	  C3      1    UNL1	  0.030830
    422     C	 3.6720395274 -6.7743747442 -0.1536991591	  C3      1    UNL1	  0.031091
    423     C	 4.8989498975 -5.2358778023 -0.1536991591	  C3      1    UNL1	  0.029216
    424     C	 0.4105665073 -6.8271853196 -1.9722303866	  C3      1    UNL1	  0.028881
    425     C	 2.3882061219 -6.5428436696 -1.9722303866	  C3      1    UNL1	  0.031794
    426     C	 3.8981757323 -5.2344475543 -1.9722303866	  C3      1    UNL1	  0.032424
    427     C	 4.8347330813  1.8830784772  2.1566190609	  C3      1    UNL1	 -0.002151
    428     C	 5.9325931659 -0.1138570953  0.3064723676	  C3      1    UNL1	  0.010880
    429     C	 5.5555821912  1.9029734837  0.3064723676	  C3      1    UNL1	  0.000631
    430     C	 4.4754666883  3.6474199174  0.3064723676	  C3      1    UNL1	 -0.014569
    431     C	 5.9325931659 -0.1138570953 -1.6624126194	  C3      1    UNL1	  0.013469
    432     C	 5.5555821912  1.9029734837 -1.6624126194	  C3      1    UNL1	  0.002382
    433     C	 4.4754666883  3.6474199174 -1.6624126194	  C3      1    UNL1	 -0.013521
    434     C	-5.1384464156 -1.1397399907 -1.6624126194	  C3      1    UNL1	 -0.009241
    435     C	 5.5555821912 -2.1306876744 -1.6624126194	  C3      1    UNL1	  0.022650
    436     C	 4.8347330813  1.8830784772 -3.5125593128	  C3      1    UNL1	  0.002748
    437     C	 3.6347410981  3.5347257476 -3.5125593128	  C3      1    UNL1	 -0.014330
    438     C	-4.4528224534 -1.1346312459 -3.5125593128	  C3      1    UNL1	 -0.006528
    439     C	-3.6224499507 -2.9996784230 -3.5125593128	  C3      1    UNL1	  0.006180
    440     C	-2.1052838948 -4.3657408756 -3.5125593128	  C3      1    UNL1	  0.016546
    441     C	-3.1469245173 -1.1405123993 -5.0208127161	  C3      1    UNL1	 -0.001415
    442     C	-2.0368209917 -2.8678672023 -5.0208127161	  C3      1    UNL1	  0.011083
    443     C	-0.6199442497  1.5653429530 -6.0052552096	  C3      1    UNL1	 -0.011674
    444     C	-1.5894308496 -0.1138570953 -6.0052552096	  C3      1    UNL1	 -0.002156
